                                  MODFLOW-NWT-SWR1 
      U.S. GEOLOGICAL SURVEY MODULAR FINITE-DIFFERENCE GROUNDWATER-FLOW MODEL
                            VERSION 1.2.0 03/01/2020
                    BASED ON MODFLOW-2005 VERSION 1.12.00 02/03/2017

 LIST FILE: ./output/Agwater1_low.lst
                         UNIT    9

 OPENING ./input/Agwater1.ba6
 FILE TYPE:BAS6   UNIT   75   STATUS:OLD    
 FORMAT:FORMATTED              ACCESS:SEQUENTIAL          

 OPENING ./input/Agwater1.upw
 FILE TYPE:UPW   UNIT    7   STATUS:OLD    
 FORMAT:FORMATTED              ACCESS:SEQUENTIAL          

 OPENING ./input/Agwater1.dis
 FILE TYPE:DIS   UNIT    8   STATUS:OLD    
 FORMAT:FORMATTED              ACCESS:SEQUENTIAL          

 OPENING ./input/Agwater1.nwt
 FILE TYPE:NWT   UNIT   13   STATUS:OLD    
 FORMAT:FORMATTED              ACCESS:SEQUENTIAL          

 OPENING ./input/Agwater1.oc
 FILE TYPE:OC   UNIT   14   STATUS:OLD    
 FORMAT:FORMATTED              ACCESS:SEQUENTIAL          

 OPENING ./input/Agwater1.sfr
 FILE TYPE:SFR   UNIT   15   STATUS:OLD    
 FORMAT:FORMATTED              ACCESS:SEQUENTIAL          

 OPENING ./input/Agwater1.ghb
 FILE TYPE:GHB   UNIT   17   STATUS:OLD    
 FORMAT:FORMATTED              ACCESS:SEQUENTIAL          

 OPENING ./input/Agwater1.uzf
 FILE TYPE:UZF   UNIT   19   STATUS:OLD    
 FORMAT:FORMATTED              ACCESS:SEQUENTIAL          

 OPENING ./input/Agwater1.gag
 FILE TYPE:GAGE   UNIT   32   STATUS:OLD    
 FORMAT:FORMATTED              ACCESS:SEQUENTIAL          

 OPENING ./input/seg1_low.tab
 FILE TYPE:DATA   UNIT   55   STATUS:UNKNOWN
 FORMAT:FORMATTED              ACCESS:SEQUENTIAL          

 OPENING ./input/seg9.tab
 FILE TYPE:DATA   UNIT   56   STATUS:UNKNOWN
 FORMAT:FORMATTED              ACCESS:SEQUENTIAL          

 OPENING ./input/Agwater1.ag
 FILE TYPE:AG   UNIT   57   STATUS:OLD    
 FORMAT:FORMATTED              ACCESS:SEQUENTIAL          

 OPENING ./output/Agwater1_low.hed
 FILE TYPE:DATA   UNIT   62   STATUS:UNKNOWN
 FORMAT:FORMATTED              ACCESS:SEQUENTIAL          

 OPENING ./output/Agwater1gw_low.ts5
 FILE TYPE:DATA   UNIT  105   STATUS:UNKNOWN
 FORMAT:FORMATTED              ACCESS:SEQUENTIAL          

 OPENING ./output/Agwater1SW_low.ts9
 FILE TYPE:DATA   UNIT  107   STATUS:UNKNOWN
 FORMAT:FORMATTED              ACCESS:SEQUENTIAL          

 OPENING ./output/Agwater1SW_ET_low.ts9
 FILE TYPE:DATA   UNIT  108   STATUS:UNKNOWN
 FORMAT:FORMATTED              ACCESS:SEQUENTIAL          

 OPENING ./output/Agwater1_low.uzfot
 FILE TYPE:DATA(BINARY)   UNIT   61   STATUS:UNKNOWN
 FORMAT:BINARY                 ACCESS:SEQUENTIAL          

 OPENING ./output/Agwater1cbc_low.unf
 FILE TYPE:DATA(BINARY)   UNIT  102   STATUS:UNKNOWN
 FORMAT:BINARY                 ACCESS:SEQUENTIAL          

 OPENING ./output/Agwater1_low.uzf1
 FILE TYPE:DATA   UNIT   65   STATUS:UNKNOWN
 FORMAT:FORMATTED              ACCESS:SEQUENTIAL          

 OPENING ./output/Agwater1_low.uzf2
 FILE TYPE:DATA   UNIT   66   STATUS:UNKNOWN
 FORMAT:FORMATTED              ACCESS:SEQUENTIAL          

 OPENING ./output/Agwater1_low.uzf3
 FILE TYPE:DATA   UNIT   67   STATUS:UNKNOWN
 FORMAT:FORMATTED              ACCESS:SEQUENTIAL          

 OPENING ./output/Agwater1_low.uzf4
 FILE TYPE:DATA   UNIT   68   STATUS:UNKNOWN
 FORMAT:FORMATTED              ACCESS:SEQUENTIAL          

 OPENING ./output/Agwater1_low.flw
 FILE TYPE:DATA   UNIT   81   STATUS:UNKNOWN
 FORMAT:FORMATTED              ACCESS:SEQUENTIAL          

 OPENING ./output/Agwater1_low.sg1
 FILE TYPE:DATA   UNIT   83   STATUS:UNKNOWN
 FORMAT:FORMATTED              ACCESS:SEQUENTIAL          

 OPENING ./output/Agwater1_low.sg2
 FILE TYPE:DATA   UNIT   84   STATUS:UNKNOWN
 FORMAT:FORMATTED              ACCESS:SEQUENTIAL          

 OPENING ./output/Agwater1_low.sg3
 FILE TYPE:DATA   UNIT   85   STATUS:UNKNOWN
 FORMAT:FORMATTED              ACCESS:SEQUENTIAL          

 OPENING ./output/Agwater1_low.sg4
 FILE TYPE:DATA   UNIT   86   STATUS:UNKNOWN
 FORMAT:FORMATTED              ACCESS:SEQUENTIAL          

 OPENING ./output/Agwater1_low.sg5
 FILE TYPE:DATA   UNIT   87   STATUS:UNKNOWN
 FORMAT:FORMATTED              ACCESS:SEQUENTIAL          

 OPENING ./output/Agwater1_low.sg6
 FILE TYPE:DATA   UNIT   88   STATUS:UNKNOWN
 FORMAT:FORMATTED              ACCESS:SEQUENTIAL          

 OPENING ./output/Agwater1_low.sg7
 FILE TYPE:DATA   UNIT   89   STATUS:UNKNOWN
 FORMAT:FORMATTED              ACCESS:SEQUENTIAL          

 OPENING ./output/Agwater1_low.sg8
 FILE TYPE:DATA   UNIT   90   STATUS:UNKNOWN
 FORMAT:FORMATTED              ACCESS:SEQUENTIAL          

 OPENING ./output/Agwater1_low.sg9
 FILE TYPE:DATA   UNIT   91   STATUS:UNKNOWN
 FORMAT:FORMATTED              ACCESS:SEQUENTIAL          

 BAS -- BASIC PACKAGE, VERSION 1.1.4, 4/01/2018 INPUT READ FROM UNIT   75
 
 MODFLOW was compiled using mixed precision
 Precision of REAL variables:           6
 Precision of DOUBLE PRECISION variables:          15

 DISCRETIZATION INPUT DATA READ FROM UNIT    8
 #Test problem 2-- Discretization input
 #Example problem using the UZF1 Package
    1 LAYERS        15 ROWS        10 COLUMNS
   49 STRESS PERIOD(S) IN SIMULATION
 MODEL TIME UNIT IS SECONDS
 MODEL LENGTH UNIT IS FEET
  Confining bed flag for each layer:
   0

                     DELR =   5000.00    

                     DELC =   5000.00    



           TOP ELEVATION OF LAYER 1
 READING ON UNIT    8 WITH FORMAT: (10F7.0)            

            1           2           3           4           5           6           7           8           9          10
 ........................................................................................................................
   1    1105.       1105.       0.000       0.000       0.000       0.000       0.000       0.000       0.000       0.000    
   2    1105.       1095.       1105.       0.000       0.000       1100.       1100.       1110.       0.000       0.000    
   3    0.000       1100.       1085.       1080.       1078.       1076.       1073.       1090.       0.000       0.000    
   4    1110.       1100.       1090.       1085.       1076.       1080.       1080.       1070.       1100.       0.000    
   5    1110.       1100.       1085.       1080.       1078.       1074.       1077.       1066.       1075.       1080.    
   6    1105.       1095.       1080.       1077.       1073.       1069.       1070.       1063.       1085.       1095.    
   7    1105.       1090.       1075.       1072.       1070.       1065.       1065.       1069.       1090.       0.000    
   8    0.000       1080.       1070.       1068.       1063.       1060.       1063.       1067.       1090.       0.000    
   9    0.000       1075.       1065.       1062.       1058.       1052.       1055.       1065.       1090.       0.000    
  10    0.000       1070.       1060.       1055.       1046.       1046.       1044.       1060.       1088.       1100.    
  11    0.000       1055.       1050.       1045.       1041.       1042.       1040.       1050.       1075.       0.000    
  12    1027.       1028.       1028.       1032.       1032.       1033.       1032.       1040.       1060.       0.000    
  13    997.0       1004.       1008.       1014.       1020.       1027.       1032.       1038.       1050.       0.000    
  14    0.000       1030.       1040.       1045.       1050.       1050.       1050.       1050.       1044.       0.000    
  15    0.000       0.000       1080.       1080.       1080.       1080.       0.000       0.000       0.000       0.000    



             MODEL LAYER BOTTOM EL. FOR LAYER   1
 READING ON UNIT    8 WITH FORMAT: (10F7.0)            

            1           2           3           4           5           6           7           8           9          10
 ........................................................................................................................
   1    1000.       1000.       0.000       0.000       0.000       0.000       0.000       0.000       0.000       0.000    
   2    1000.       900.0       900.0       0.000       0.000       950.0       950.0       950.0       0.000       0.000    
   3    0.000       850.0       670.0       680.0       680.0       770.0       770.0       890.0       0.000       0.000    
   4    925.0       850.0       650.0       650.0       650.0       680.0       740.0       850.0       950.0       0.000    
   5    925.0       800.0       650.0       600.0       600.0       600.0       650.0       720.0       850.0       950.0    
   6    925.0       800.0       650.0       600.0       550.0       600.0       650.0       720.0       850.0       970.0    
   7    925.0       800.0       650.0       600.0       550.0       600.0       650.0       720.0       950.0       0.000    
   8    0.000       850.0       700.0       650.0       570.0       600.0       700.0       850.0       950.0       0.000    
   9    0.000       850.0       700.0       650.0       540.0       580.0       700.0       850.0       950.0       0.000    
  10    0.000       850.0       700.0       630.0       530.0       580.0       650.0       800.0       900.0       950.0    
  11    0.000       850.0       700.0       620.0       580.0       620.0       700.0       800.0       900.0       0.000    
  12    900.0       830.0       710.0       640.0       600.0       650.0       700.0       800.0       900.0       0.000    
  13    900.0       810.0       750.0       700.0       650.0       700.0       750.0       800.0       900.0       0.000    
  14    0.000       950.0       850.0       850.0       850.0       850.0       850.0       850.0       850.0       0.000    
  15    0.000       0.000       950.0       950.0       950.0       950.0       0.000       0.000       0.000       0.000    


 STRESS PERIOD     LENGTH       TIME STEPS     MULTIPLIER FOR DELT    SS FLAG
 ----------------------------------------------------------------------------
        1         86400.00          1                    1.000         SS
        2         2630000.         30                    1.000         TR
        3         2630000.         30                    1.000         TR
        4         2630000.         30                    1.000         TR
        5         2630000.         30                    1.000         TR
        6         2630000.         30                    1.000         TR
        7         2630000.         30                    1.000         TR
        8         2630000.         30                    1.000         TR
        9         2630000.         30                    1.000         TR
       10         2630000.         30                    1.000         TR
       11         2630000.         30                    1.000         TR
       12         2630000.         30                    1.000         TR
       13         2630000.         30                    1.000         TR
       14         2630000.         30                    1.000         TR
       15         2630000.         30                    1.000         TR
       16         2630000.         30                    1.000         TR
       17         2630000.         30                    1.000         TR
       18         2630000.         30                    1.000         TR
       19         2630000.         30                    1.000         TR
       20         2630000.         30                    1.000         TR
       21         2630000.         30                    1.000         TR
       22         2630000.         30                    1.000         TR
       23         2630000.         30                    1.000         TR
       24         2630000.         30                    1.000         TR
       25         2630000.         30                    1.000         TR
       26         2630000.         30                    1.000         TR
       27         2630000.         30                    1.000         TR
       28         2630000.         30                    1.000         TR
       29         2630000.         30                    1.000         TR
       30         2630000.         30                    1.000         TR
       31         2630000.         30                    1.000         TR
       32         2630000.         30                    1.000         TR
       33         2630000.         30                    1.000         TR
       34         2630000.         30                    1.000         TR
       35         2630000.         30                    1.000         TR
       36         2630000.         30                    1.000         TR
       37         2630000.         30                    1.000         TR
       38         2630000.         30                    1.000         TR
       39         2630000.         30                    1.000         TR
       40         2630000.         30                    1.000         TR
       41         2630000.         30                    1.000         TR
       42         2630000.         30                    1.000         TR
       43         2630000.         30                    1.000         TR
       44         2630000.         30                    1.000         TR
       45         2630000.         30                    1.000         TR
       46         2630000.         30                    1.000         TR
       47         2630000.         30                    1.000         TR
       48         2630000.         30                    1.000         TR
       49         2630000.         30                    1.000         TR

 COMBINED STEADY-STATE AND TRANSIENT SIMULATION



 
 #Test Simulation 2-- Example problem using the UZF1 Package                     
 #Modified from example Problem 1 of SFR1 documentation report                   
 THE FREE FORMAT OPTION HAS BEEN SELECTED



                     BOUNDARY ARRAY FOR LAYER   1
 READING ON UNIT   75 WITH FORMAT: (20I4)              

                1           2           3           4           5           6           7           8           9          10
 ............................................................................................................................
   1            1           1           0           0           0           0           0           0           0           0
   2            1           1           1           0           0           1           1           1           0           0
   3            0           1           1           1           1           1           1           1           0           0
   4            1           1           1           1           1           1           1           1           1           0
   5            1           1           1           1           1           1           1           1           1           1
   6            1           1           1           1           1           1           1           1           1           1
   7            1           1           1           1           1           1           1           1           1           0
   8            0           1           1           1           1           1           1           1           1           0
   9            0           1           1           1           1           1           1           1           1           0
  10            0           1           1           1           1           1           1           1           1           1
  11            0           1           1           1           1           1           1           1           1           0
  12            1           1           1           1           1           1           1           1           1           0
  13            1           1           1           1           1           1           1           1           1           0
  14            0           1           1           1           1           1           1           1           1           0
  15            0           0           1           1           1           1           0           0           0           0

 AQUIFER HEAD WILL BE SET TO   6999.0     AT ALL NO-FLOW NODES (IBOUND=0).



                       INITIAL HEAD FOR LAYER   1
 READING ON UNIT   75 WITH FORMAT: (10F8.0)            

            1           2           3           4           5           6           7           8           9          10
 ........................................................................................................................
   1    1093.       1089.       6999.       6999.       6999.       6999.       6999.       6999.       6999.       6999.    
   2    1090.       1087.       1081.       6999.       6999.       1072.       1071.       1071.       6999.       6999.    
   3    6999.       1079.       1078.       1074.       1072.       1071.       1069.       1068.       6999.       6999.    
   4    1069.       1071.       1070.       1067.       1065.       1064.       1064.       1066.       1066.       6999.    
   5    1065.       1064.       1063.       1062.       1061.       1061.       1060.       1062.       1066.       1068.    
   6    1060.       1058.       1057.       1056.       1056.       1057.       1057.       1059.       1062.       1066.    
   7    1056.       1053.       1052.       1051.       1051.       1052.       1053.       1055.       1056.       6999.    
   8    6999.       1046.       1046.       1046.       1046.       1046.       1048.       1050.       1050.       6999.    
   9    6999.       1039.       1039.       1039.       1040.       1041.       1042.       1043.       1044.       6999.    
  10    6999.       1031.       1032.       1033.       1034.       1035.       1037.       1038.       1039.       1042.    
  11    6999.       1021.       1023.       1027.       1029.       1030.       1032.       1034.       1036.       6999.    
  12    1001.       1009.       1015.       1020.       1023.       1026.       1029.       1030.       1034.       6999.    
  13    994.5      1000.0       1007.       1013.       1019.       1024.       1029.       1034.       1036.       6999.    
  14    6999.       1004.       1009.       1014.       1019.       1024.       1029.       1035.       1039.       6999.    
  15    6999.       6999.       1012.       1015.       1019.       1022.       6999.       6999.       6999.       6999.    

 OUTPUT CONTROL IS SPECIFIED ONLY AT TIME STEPS FOR WHICH OUTPUT IS DESIRED
 HEADS WILL BE SAVED WITH FORMAT: (10F10.3)           
 SAVED HEADS WILL BE LABELED
 COMPACT CELL-BY-CELL BUDGET FILES WILL BE WRITTEN
 HEAD PRINT FORMAT CODE IS   4    DRAWDOWN PRINT FORMAT CODE IS   0
 HEADS WILL BE SAVED ON UNIT   62    DRAWDOWNS WILL BE SAVED ON UNIT    0
 # NWT Input File
 # Test Problem 3 for MODFLOW-NWT
 #HEADTOL  FLUXTOL MAXITEROUT THICKFACT LINMETH IPRNWT IBOTAV OPTIONS DBDREDUCE DBDINCREASE DBDGAMMA MOMFACT BACKFLAG MAXBACKITER BACKTOL BACKREDUCE

 NWT1 -- Newton Solver, VERSION 1.1.4, 4/01/2018
         INPUT READ FROM UNIT 13

 SPECIFIED OPTION:
 SOLVER INPUT VALUES ARE SPECIFIED BY USER
 ***XMD linear solver will be used***
 
   CONVERGENCE CRITERION OF   0.100000E-03 FOR HEAD SOLUTION
   AND A TOLERANCE OF   0.100000E+01 FOR FLOW SOLUTION AND 
   A MAXIMUM OF   500 OUTER ITERATIONS. 


   D-B-D REDUCTION FACTOR OF    0.970000E+00 AND 
   A D-B-D INCREASE FACTOR OF    0.100000E-04 AND 
   A D-B-D RELAXATION OF    0.000000E+00 AND 
   A MOMENTUM FACTOR OF    0.100000E+00 .


 ***BACKTRACKING IS INACTIVE***
 XMD -- LINEAR SOLUTION BY XMD PACKAGE VERSION 1.30
     BY MOTOMU IBARAKI, OHIO STATE UNIVERSITY, COLOMBUS, OH
                 INPUT READ FROM UNIT 13
 ACCELERATION METHOD                    (IACL) =         1
 NODE ORDERING FLAG                   (NORDER) =         0
 LEVEL OF FILL                         (LEVEL) =         7
 MAXIMUM NUMBER OF ORTHOGONALIZATIONS  (NORTH) =         7
 INDEX FOR USING REDUCED SYSTEM      (IREDSYS) =         1
 RESID. REDUCTION CONVERGE CRITERION  (RRCTOL) =  0.000000E+00
 INDEX FOR USING DROP TOLERANCE     (IDROPTOL) =         1
 DROP TOLERANCE VALUE                  (EPSRN) =  0.500000E-02
 CONVERGENCE CRITERIA OF           (HCLOSEXMD) =  0.100000E-03
 MAX. NUMBER OF LINEAR ITERATIONS  (MXITERXMD) =        50


 UPW1 -- UPSTREAM WEIGHTING FLOW PACKAGE, VERSION 1.1.4, 4/01/2018
         INPUT READ FROM UNIT  7

 #Layer-Property Flow Package input for test simulation 2
 CELL-BY-CELL FLOWS WILL BE SAVED ON UNIT  102
 No named parameters

   LAYER FLAGS:
 LAYER       LAYTYP          LAYAVG    CHANI           LAYVKA           LAYWET
 ---------------------------------------------------------------------------
    1             1             0     1.000E+00             0             0

   INTERPRETATION OF LAYER FLAGS:
                        INTERBLOCK     HORIZONTAL    DATA IN
         LAYER TYPE   TRANSMISSIVITY   ANISOTROPY   ARRAY VKA   WETTABILITY
 LAYER   (LAYTYP)        (LAYAVG)      (CHANI)     (LAYVKA)       (LAYWET)
 ---------------------------------------------------------------------------
    1   CONVERTIBLE      HARMONIC     1.000E+00    VERTICAL K  NON-WETTABLE



              HYD. COND. ALONG ROWS FOR LAYER   1
 READING ON UNIT    7 WITH FORMAT: (10F5.0)            

            1           2           3           4           5           6           7           8           9          10
 ........................................................................................................................
   1   2.0000E-03  2.0000E-03   0.000       0.000       0.000       0.000       0.000       0.000       0.000       0.000    
   2   4.0000E-04  2.0000E-03  2.0000E-03   0.000       0.000      4.0000E-04  4.0000E-04  4.0000E-04   0.000       0.000    
   3    0.000      4.0000E-04  2.0000E-03  2.0000E-03  4.0000E-04  4.0000E-04  4.0000E-04  4.0000E-04   0.000       0.000    
   4   4.0000E-04  4.0000E-04  4.0000E-04  2.0000E-03  2.0000E-03  2.0000E-03  4.0000E-04  4.0000E-04  4.0000E-04   0.000    
   5   4.0000E-04  4.0000E-04  4.0000E-04  2.0000E-03  2.0000E-03  2.0000E-03  2.0000E-03  2.0000E-03  2.0000E-03  2.0000E-03
   6   4.0000E-04  4.0000E-04  4.0000E-04  2.0000E-03  2.0000E-03  2.0000E-03  2.0000E-03  2.0000E-03  4.0000E-04  4.0000E-04
   7   4.0000E-04  4.0000E-04  4.0000E-04  2.0000E-03  2.0000E-03  2.0000E-03  2.0000E-03  2.0000E-03  4.0000E-04   0.000    
   8    0.000      4.0000E-04  4.0000E-04  2.0000E-03  2.0000E-03  2.0000E-03  2.0000E-03  4.0000E-04  4.0000E-04   0.000    
   9    0.000      4.0000E-04  4.0000E-04  2.0000E-03  2.0000E-03  2.0000E-03  2.0000E-03  4.0000E-04  4.0000E-04   0.000    
  10    0.000      4.0000E-04  4.0000E-04  2.0000E-03  2.0000E-03  2.0000E-03  2.0000E-03  4.0000E-04  4.0000E-04  4.0000E-04
  11    0.000      4.0000E-04  4.0000E-04  2.0000E-03  2.0000E-03  2.0000E-03  2.0000E-03  4.0000E-04  4.0000E-04   0.000    
  12   4.0000E-04  4.0000E-04  2.0000E-03  2.0000E-03  2.0000E-03  2.0000E-03  2.0000E-03  4.0000E-04  4.0000E-04   0.000    
  13   2.0000E-03  2.0000E-03  2.0000E-03  2.0000E-03  2.0000E-03  2.0000E-03  2.0000E-03  2.0000E-03  2.0000E-03   0.000    
  14    0.000      4.0000E-04  4.0000E-04  4.0000E-04  4.0000E-04  4.0000E-04  4.0000E-04  4.0000E-04  2.0000E-03   0.000    
  15    0.000       0.000      4.0000E-04  4.0000E-04  4.0000E-04  4.0000E-04   0.000       0.000       0.000       0.000    

      VERTICAL HYD. COND. =  1.000000E-06 FOR LAYER   1

         SPECIFIC STORAGE =  1.000000E-06 FOR LAYER   1



                     SPECIFIC YIELD FOR LAYER   1
 READING ON UNIT    7 WITH FORMAT: (10F5.0)            

            1           2           3           4           5           6           7           8           9          10
 ........................................................................................................................
   1   0.2000      0.2000       0.000       0.000       0.000       0.000       0.000       0.000       0.000       0.000    
   2   0.1000      0.2000      0.2000       0.000       0.000      0.1000      0.1000      0.1000       0.000       0.000    
   3    0.000      0.1000      0.2000      0.2000      0.1000      0.1000      0.1000      0.1000       0.000       0.000    
   4   0.1000      0.1000      0.1000      0.2000      0.2000      0.2000      0.1000      0.1000      0.1000       0.000    
   5   0.1000      0.1000      0.1000      0.2000      0.2000      0.2000      0.2000      0.2000      0.2000      0.2000    
   6   0.1000      0.1000      0.1000      0.2000      0.2000      0.2000      0.2000      0.2000      0.1000      0.1000    
   7   0.1000      0.1000      0.1000      0.2000      0.2000      0.2000      0.2000      0.2000      0.1000       0.000    
   8    0.000      0.1000      0.1000      0.2000      0.2000      0.2000      0.2000      0.1000      0.1000       0.000    
   9    0.000      0.1000      0.1000      0.2000      0.2000      0.2000      0.2000      0.1000      0.1000       0.000    
  10    0.000      0.1000      0.1000      0.2000      0.2000      0.2000      0.2000      0.1000      0.1000      0.1000    
  11    0.000      0.1000      0.1000      0.2000      0.2000      0.2000      0.2000      0.1000      0.1000       0.000    
  12   0.1000      0.1000      0.2000      0.2000      0.2000      0.2000      0.2000      0.1000      0.1000       0.000    
  13   0.2000      0.2000      0.2000      0.2000      0.2000      0.2000      0.2000      0.2000      0.2000       0.000    
  14    0.000      0.1000      0.1000      0.1000      0.1000      0.1000      0.1000      0.1000      0.2000       0.000    
  15    0.000       0.000      0.1000      0.1000      0.1000      0.1000       0.000       0.000       0.000       0.000    

 GHB -- GENERAL-HEAD BOUNDARY PACKAGE, VERSION 7, 5/2/2005
         INPUT READ FROM UNIT   17
 No named parameters
 MAXIMUM OF      2 ACTIVE GHB CELLS AT ONE TIME
 CELL-BY-CELL FLOWS WILL BE PRINTED WHEN ICBCFL NOT 0


     0 GHB parameters

 SFR7 -- STREAMFLOW ROUTING PACKAGE, VERSION 1.0.5, 2012-04-05
         INPUT READ FROM UNIT  15
 #SFR2 Package input for Testing supplimental pumping and irrigation
 No named parameters

 PROCESSING SFR2 OPTIONS
 
          2 Specified inflow files will be read with a maximum of       1446 row entries per file
 
Stream loss will be calculated as a factor of the streambed hydraulic conductivity. Multiplication factor is equal to     0.1000000015E+00

 END PROCESSING SFR2 OPTIONS
 


 NUMBER OF STREAM REACHES IS   38

 NUMBER OF STREAM SEGMENTS IS    9

 NUMBER OF STREAM PARAMETERS IS    0

 NUMBER OF STREAM SEGMENTS DEFINED USING PARAMETERS IS              0

 MAXIMUM ERROR FOR STREAM LEAKAGE RATES IS  1.00E-06

 CONSTANT FOR MANNINGS EQUATION IS  1.4860E+00



 STREAM OUTPUT WILL BE WRITTEN TO FILE ON UNIT   81


   STREAM NETWORK DESCRIPTION: 

   LAYER    ROW    COL   SEGMENT   REACH     LENGTH
                          NUMBER   NUMBER    IN CELL        
   --------------------------------------------------
      1      1      1       1        1    4.5000E+03
      1      2      2       1        2    7.0000E+03
      1      3      3       1        3    6.0000E+03
      1      3      4       1        4    5.5500E+03
      1      4      5       2        1    6.5000E+03
      1      5      6       2        2    5.0000E+03
      1      6      6       2        3    5.0000E+03
      1      7      6       2        4    5.0000E+03
      1      8      6       2        5    5.0000E+03
      1      3      5       3        1    5.0000E+03
      1      3      6       3        2    5.0000E+03
      1      3      7       3        3    4.5000E+03
      1      4      8       3        4    6.0000E+03
      1      5      8       3        5    5.0000E+03
      1      6      8       3        6    2.0000E+03
      1      5     10       4        1    2.5000E+03
      1      5      9       4        2    5.0000E+03
      1      6      8       4        3    3.5000E+03
      1      6      8       5        1    4.0000E+03
      1      7      7       5        2    5.0000E+03
      1      8      7       5        3    3.5000E+03
      1      8      6       5        4    2.5000E+03
      1      9      6       6        1    5.0000E+03
      1     10      7       6        2    5.0000E+03
      1     11      7       6        3    5.0000E+03
      1     12      7       6        4    5.0000E+03
      1     13      7       6        5    2.0000E+03
      1     14      9       7        1    5.0000E+03
      1     13      8       7        2    5.5000E+03
      1     13      7       7        3    5.0000E+03
      1     13      6       8        1    5.0000E+03
      1     13      5       8        2    5.0000E+03
      1     13      4       8        3    5.0000E+03
      1     13      3       8        4    5.0000E+03
      1     13      2       8        5    5.0000E+03
      1     13      1       8        6    3.0000E+03
      1      8      6       9        1    3.0000E+03
      1      8      5       9        2    3.0000E+03




 UZF1 -- UNSATURATED FLOW PACKAGE, VERSION 1.5, 09/10/2019
         INPUT READ FROM UNIT 19
 #UZF Package input for test simulation 2
 No named parameters

 PROCESSING UZF OPTIONS
 
 
 INITIAL WATER CONTENT (THTI) WILL BE 
READ FOR THE FIRST SS OR TR STRESS PERIOD
 
 
 RESIDUAL WATER CONTENT (THTR) WILL BE 
READ AND USED FOR THE FIRST TRANSIENT STRESS 
PERIOD
 
 
AIR ENTRY PRESSURE AND ROOT PRESSURE WILL BE 
SPECIFIED BY USER AND UZ ET WILL BE SIMULATED 
AS PRESSURE-HEAD DEPENDENT
 
 
INFILTRATION WILL BE REJECTED USING 
LAND SURFACE K
 
 
HYDRAULIC CONDUCTIVITY OF LAND SURFACE 
WILL BE READ
 

 END PROCESSING UZF OPTIONS



            AREAL EXTENT OF UZ FLOW
 READING ON UNIT   19 WITH FORMAT: (20I4)              

                1           2           3           4           5           6           7           8           9          10
 ............................................................................................................................
   1            1           1           0           0           0           0           0           0           0           0
   2            1           1           1           0           0           1           1           1           0           0
   3            0           1           1           1           1           1           1           1           0           0
   4            1           1           1           1           1           1           1           1           1           0
   5            1           1           1           1           1           1           1           1           1           1
   6            1           1           1           1           1           1           1           1           1           1
   7            1           1           1           1           1           1           1           1           1           0
   8            0           1           1           1           1           1           1           1           1           0
   9            0           1           1           1           1           1           1           1           1           0
  10            0           1           1           1           1           1           1           1           1           1
  11            0           1           1           1           1           1           1           1           1           0
  12            1           1           1           1           1           1           1           1           1           0
  13            1           1           1           1           1           1           1           1           1           0
  14            0           1           1           1           1           1           1           1           1           0
  15            0           0           1           1           1           1           0           0           0           0
 OPTION 1 -- RECHARGE IN UZF TO TOP LAYER ONLY 



            ROUTING OVERLAND RUNOFF
 READING ON UNIT   19 WITH FORMAT: (20I4)              

                1           2           3           4           5           6           7           8           9          10
 ............................................................................................................................
   1            1           1           0           0           0           0           0           0           0           0
   2            1           1           1           0           0           3           3           3           0           0
   3            0           1           1           1           3           3           3           3           0           0
   4            8           8           2           2           2           2           2           3           3           0
   5            8           8           8           8           2           2           2           3           4           4
   6            8           8           8           8           8           2           2           4           4           4
   7            8           8           8           8           8           2           5           5           5           0
   8            0           8           8           8           8           2           5           5           5           0
   9            0           8           8           8           8           6           6           6           6           0
  10            0           8           8           8           8           6           6           6           6           6
  11            0           8           8           8           8           8           6           6           7           0
  12            8           8           8           8           8           8           6           7           7           0
  13            8           8           8           8           8           8           7           7           7           0
  14            0           8           8           8           8           8           7           7           7           0
  15            0           0           8           8           8           8           0           0           0           0



               SATURATED VERTICAL K
 READING ON UNIT   19 WITH FORMAT: (10F4.0)            

            1           2           3           4           5           6           7           8           9          10
 ........................................................................................................................
   1   4.6000E-05  4.6000E-05   0.000       0.000       0.000       0.000       0.000       0.000       0.000       0.000    
   2   4.6000E-05  4.6000E-05  4.6000E-05   0.000       0.000      4.6000E-05  4.6000E-05  4.6000E-05   0.000       0.000    
   3    0.000      4.6000E-05  4.6000E-05  4.6000E-05  4.6000E-05  4.6000E-05  4.6000E-05  4.6000E-05   0.000       0.000    
   4   4.6000E-05  4.6000E-05  4.6000E-05  4.6000E-05  4.6000E-05  4.6000E-05  4.6000E-05  4.6000E-05  4.6000E-05   0.000    
   5   4.6000E-05  4.6000E-05  4.6000E-05  4.6000E-05  4.6000E-05  4.6000E-05  4.6000E-05  4.6000E-05  4.6000E-05  4.6000E-05
   6   4.6000E-05  4.6000E-05  4.6000E-05  4.6000E-05  4.6000E-05  4.6000E-05  4.6000E-05  4.6000E-05  4.6000E-05  4.6000E-05
   7   4.6000E-05  4.6000E-05  4.6000E-05  4.6000E-05  4.6000E-05  4.6000E-05  4.6000E-05  4.6000E-05  4.6000E-05   0.000    
   8    0.000      4.6000E-05  4.6000E-05  4.6000E-05  4.6000E-05  4.6000E-05  4.6000E-05  4.6000E-05  4.6000E-05   0.000    
   9    0.000      4.6000E-05  4.6000E-05  4.6000E-05  4.6000E-05  4.6000E-05  4.6000E-05  4.6000E-05  4.6000E-05   0.000    
  10    0.000      4.6000E-05  4.6000E-05  4.6000E-05  4.6000E-05  4.6000E-05  4.6000E-05  4.6000E-05  4.6000E-05  4.6000E-05
  11    0.000      4.6000E-05  4.6000E-05  4.6000E-05  4.6000E-05  4.6000E-05  4.6000E-05  4.6000E-05  4.6000E-05   0.000    
  12   4.6000E-05  4.6000E-05  4.6000E-05  4.6000E-05  4.6000E-05  4.6000E-05  4.6000E-05  4.6000E-05  4.6000E-05   0.000    
  13   4.6000E-05  4.6000E-05  4.6000E-05  4.6000E-05  4.6000E-05  4.6000E-05  4.6000E-05  4.6000E-05  4.6000E-05   0.000    
  14    0.000      4.6000E-05  4.6000E-05  4.6000E-05  4.6000E-05  4.6000E-05  4.6000E-05  4.6000E-05  4.6000E-05   0.000    
  15    0.000       0.000      4.6000E-05  4.6000E-05  4.6000E-05  4.6000E-05   0.000       0.000       0.000       0.000    



            LAND SURFACE VERTICAL K
 READING ON UNIT   19 WITH FORMAT: (10F4.0)            

            1           2           3           4           5           6           7           8           9          10
 ........................................................................................................................
   1   1.0000E-05  1.0000E-05   0.000       0.000       0.000       0.000       0.000       0.000       0.000       0.000    
   2   1.0000E-05  1.0000E-05  1.0000E-05   0.000       0.000      1.0000E-05  1.0000E-05  1.0000E-05   0.000       0.000    
   3    0.000      1.0000E-05  1.0000E-05  1.0000E-05  1.0000E-05  1.0000E-05  1.0000E-05  1.0000E-05   0.000       0.000    
   4   1.0000E-05  1.0000E-05  1.0000E-05  1.0000E-05  1.0000E-05  1.0000E-05  1.0000E-05  1.0000E-05  1.0000E-05   0.000    
   5   1.0000E-05  1.0000E-05  1.0000E-05  1.0000E-05  1.0000E-05  1.0000E-05  1.0000E-05  1.0000E-05  1.0000E-05  1.0000E-05
   6   1.0000E-05  1.0000E-05  1.0000E-05  1.0000E-05  1.0000E-05  1.0000E-05  1.0000E-05  1.0000E-05  1.0000E-05  1.0000E-05
   7   1.0000E-05  1.0000E-05  1.0000E-05  1.0000E-05  1.0000E-05  1.0000E-05  1.0000E-05  1.0000E-05  1.0000E-05   0.000    
   8    0.000      1.0000E-05  1.0000E-05  1.0000E-05  1.0000E-05  1.0000E-05  1.0000E-05  1.0000E-05  1.0000E-05   0.000    
   9    0.000      1.0000E-05  1.0000E-05  1.0000E-05  1.0000E-05  1.0000E-05  1.0000E-05  1.0000E-05  1.0000E-05   0.000    
  10    0.000      1.0000E-05  1.0000E-05  1.0000E-05  1.0000E-05  1.0000E-05  1.0000E-05  1.0000E-05  1.0000E-05  1.0000E-05
  11    0.000      1.0000E-05  1.0000E-05  1.0000E-05  1.0000E-05  1.0000E-05  1.0000E-05  1.0000E-05  1.0000E-05   0.000    
  12   1.0000E-05  1.0000E-05  1.0000E-05  1.0000E-05  1.0000E-05  1.0000E-05  1.0000E-05  1.0000E-05  1.0000E-05   0.000    
  13   1.0000E-05  1.0000E-05  1.0000E-05  1.0000E-05  1.0000E-05  1.0000E-05  1.0000E-05  1.0000E-05  1.0000E-05   0.000    
  14    0.000      1.0000E-05  1.0000E-05  1.0000E-05  1.0000E-05  1.0000E-05  1.0000E-05  1.0000E-05  1.0000E-05   0.000    
  15    0.000       0.000      1.0000E-05  1.0000E-05  1.0000E-05  1.0000E-05   0.000       0.000       0.000       0.000    

     BROOKS-COREY EPSILON =   7.50000    

  SATURATED WATER CONTENT =  0.380000    

   RESIDUAL WATER CONTENT =  0.200000    

    INITIAL WATER CONTENT =  0.200000    

UNSATURATED FLOW RESULTS WILL BE PRINTED TO SEPARATE FILES FOR SELECTED MODEL CELLS, AND TIME STEPS AS DEFINED BY OUTPUT CONTROL PACKAGE 

SELECTED MODEL CELLS ARE: 
 ROW NUMBER  COLUMN NUMBER  FORTRAN UNIT NUMBER  OUTPUT OPTION


       6             4                 65                 1
       6             5                 66                 2
       8             4                 67                 3
       0             0                 68                 4



   9 GAGING STATIONS WERE SPECIFIED.
     (Lakes are identified by a negative value of the Lake Number)
     RECORDS WILL BE WRITTEN TO SEPARATE OUTPUT FILES REPRESENTED BY FOLLOWING UNIT NUMBERS:

 Stream Gages:
  GAGE #   SEGMENT   REACH   UNIT   OUTTYPE
       1       1       4      83       1
       2       2       5      84       1
       3       3       5      85       1
       4       4       3      86       1
       5       5       4      87       4
       6       6       5      88       4
       7       7       3      89       4
       8       8       6      90       4
       9       9       1      91       5





 AG -- AG PACKAGE FOR NWT VERSION 1.1.3,  8/01/2017 INPUT READ FROM UNIT   57
 # AG options

 PROCESSING AG OPTIONS
 
 AGRICULTURAL DEMANDS WILL BE CALCULATED USING ET DEFICIT
 
 
 OPTION TO APPLY SURFACE WATER AS IRRIGATION IS ACTIVE. DIVERTED SURFACE WATER WILL BE APPLIED TO          1 CELLS/RHUS.
 
 
 OPTION TO PUMP SUPPLEMENTARY WATER FOR SURFACE DIVERSION SHORTFALL IS ACTIVATED.  A TOTAL OF             6 SUPPLEMENTAL WELLS ARE ACTIVE
 
 
 OPTION TO APPLY PUMPED WATER AS IRRIGATION IS ACTIVE. PUMPED IRRIGATION WATER WILL BE APPLIED TO          6 CELLS/RHUS.
 
 
 THE MAXIMUM NUMBER OF WELLS FOR SUPPLEMENTING DIVERSIONS OR APPLYING IRRIGATION IS          6 WELLS.
 
 
  UNFORMATTED CELL BY CELL RATES FOR SUP AND IRR WELLS WILL BE SAVED TO FILE UNIT NUMBER         -2
 
 
  UNFORMATTED CELL BY CELL RATES FOR SUP AND IRR WELLS WILL BE SAVED TO FILE UNIT NUMBER         -2
 
 
  UNFORMATTED CELL BY CELL RATES FOR SUP AND IRR WELLS WILL BE SAVED TO FILE UNIT NUMBER         -2
 
 
  UNFORMATTED CELL BY CELL RATES FOR SUP AND IRR WELLS WILL BE SAVED TO FILE UNIT NUMBER         -2
 
 
  GROUND WATER IRRIGATION, POTENTIAL AND ACTUAL ET WILL BE SAVED TO TIMES SERIES OUTPUT FILES.
 
 
  SURFACE WATER IRRIGATION, POTENTIAL AND ACTUAL ET WILL BE SAVED TO TIMES SERIES OUTPUT FILES.
 
 
  SURFACE WATER IRRIGATION, POTENTIAL AND ACTUAL ET WILL BE SAVED TO TIMES SERIES OUTPUT FILES.
 

 END PROCESSING AG OPTIONS
 # AG time series

 PROCESSING TIME SERIES

 FINISHED READING TIME SERIES
 A total number of          1 AG output time series files were activated for SURFACE WATER 
 A total number of          1 AG output time series files were activated for GROUNDWATER 
 A total number of          1 AG output time series files were activated for SURFACE WATER ET
 A total number of          0 AG output time series files were activated for GROUNDWATER ET
1
                            STRESS PERIOD NO.    1, LENGTH =   86400.00    
                            -----------------------------------------------

                              NUMBER OF TIME STEPS =     1

                               MULTIPLIER FOR DELT =     1.000

                            INITIAL TIME STEP SIZE =   86400.00    

 BOUND. NO. LAYER   ROW   COL     STAGE      CONDUCTANCE         
 ----------------------------------------------------------------
      1      1     13      1       988.0          0.3800E-01
      2      1     14      9       1045.          0.3800E-01

      2 GHB CELLS



 CLASSIFICATION & COUNT OF STREAM SEGMENTS BASED ON SOURCE OF INFLOW:

                HEADWATER     DIVERSION     RECEIVES TRIBUTARY FLOW
                ---------     ---------     -----------------------
                     3              2               4



                    INPUT DATA FOR EACH STREAM SEGMENT
 ---------------------------------------------------------------------------------------------

 SEGMENT    SEG.     INFLOW   OVERLAND   STREAM    STREAM   ICALC  OUTFLOW  DIVERSION PRIORITY
    NO.    LENGTH     RATE     RUNOFF      ET       PPT.    METH.  TO SEG.  FROM SEG.    NO.

      1  2.305E+04 2.500E+01 0.000E+00 0.000E+00 0.000E+00    4        2        0        0
      2  2.650E+04 0.000E+00 0.000E+00 0.000E+00 0.000E+00    1        6        0        0
      3  2.750E+04 2.000E+00 0.000E+00 0.000E+00 0.000E+00    0        5        1        0
      4  1.100E+04 1.000E+01 0.000E+00 0.000E+00 0.000E+00    1        5        0        0
      5  1.500E+04 0.000E+00 0.000E+00 0.000E+00 0.000E+00    3        6        0        0
      6  2.200E+04 0.000E+00 0.000E+00 0.000E+00 0.000E+00    1        8        0        0
      7  1.550E+04 1.500E+02 0.000E+00 0.000E+00 0.000E+00    2        8        0        0
      8  2.800E+04 0.000E+00 0.000E+00 0.000E+00 0.000E+00    2        0        0        0
      9  6.000E+03 0.000E+00 0.000E+00 0.000E+00 0.000E+00    1        0        2        0


         STREAMBED PROPERTIES AND STREAM DIMENSIONS

 SEGMENT     BED HYD. COND.      BED THICKNESS     ELEV.-TOP OF BED     WIDTH OF STREAM     DEPTH OF STREAM    STREAM ROUGHNESS
    No.     UPPER     LOWER     UPPER     LOWER     UPPER     LOWER     UPPER     LOWER     UPPER     LOWER   CHANNEL      BANK

     1  3.000E-05 3.000E-05 3.000E+00 3.000E+00 1.095E+03 1.075E+03
     2  3.000E-05 3.000E-05 3.000E+00 3.000E+00 1.075E+03 1.050E+03 1.200E+01 1.200E+01                     3.000E-02
     3  3.000E-05 3.000E-05 2.000E+00 2.000E+00 1.075E+03 1.060E+03 1.000E+01 6.000E+00 2.000E+00 1.000E+00
     4  3.000E-05 3.000E-05 3.000E+00 3.000E+00 1.080E+03 1.060E+03 1.000E+01 1.000E+01                     3.000E-02
     5  3.000E-05 3.000E-05 3.000E+00 3.000E+00 1.060E+03 1.045E+03
     6  3.000E-05 3.000E-05 3.000E+00 3.000E+00 1.045E+03 1.025E+03 1.200E+01 1.200E+01                     3.000E-02
     7  6.000E-05 6.000E-05 3.000E+00 3.000E+00 1.040E+03 1.025E+03                                         2.500E-02 4.500E-02
     8  6.000E-05 6.000E-05 3.000E+00 3.000E+00 1.025E+03 9.900E+02                                         2.500E-02 4.500E-02
     9  0.000E+00 0.000E+00 3.000E+00 3.000E+00 1.079E+03 1.078E+03 4.000E+00 4.000E+00                     3.000E-02

  EIGHT POINT CROSS-SECTION DATA FOR SEGMENTS WITH ICALC = 2
    X VALUES X VALUES START FROM LEFT SIDE LOOKING DOWNSTREAM

     SEGMENT NO.        X1        X2        X3        X4        X5        X6        X7        X8
            7      0.000E+00 1.000E+01 8.000E+01 1.000E+02 1.500E+02 1.700E+02 2.400E+02 2.500E+02
            8      0.000E+00 1.000E+01 8.000E+01 1.000E+02 1.500E+02 1.700E+02 2.400E+02 2.500E+02

    Z VALUES ARE RELATIVE TO STREAMBED ELEVATION

     SEGMENT NO.          Z1        Z2        Z3        Z4        Z5        Z6        Z7        Z8
            7      2.000E+01 1.300E+01 1.000E+01 2.000E+00 0.000E+00 1.000E+01 1.300E+01 2.000E+01
            8      2.500E+01 1.700E+01 1.300E+01 4.000E+00 0.000E+00 1.000E+01 1.600E+01 2.000E+01

 STREAMFLOW RELATION WITH DEPTH IS BASED ON EQUATION Q = CDPTH*(DEPTH)**FDPTH
 STREAMFLOW RELATION WITH WIDTH IS BASED ON EQUATION Q = AWDTH*(WIDTH)**BWDTH

 SEGMENT NO.      CDPTH     FDPTH    AWDTH     BWDTH

          5 3.000E-01 3.500E-01 3.800E+00 6.000E-01

 STREAMFLOW RELATION WITH DEPTH AND WIDTH IS BASED ON TABULATED VALUES

  SEGMENT NO.   STREAMFLOW       DEPTH       WIDTH

          1     5.0000E-01   2.5000E-01   3.0000E+00
          1     1.0000E+00   4.0000E-01   3.5000E+00
          1     2.0000E+00   5.5000E-01   4.2000E+00
          1     4.0000E+00   7.0000E-01   5.3000E+00
          1     7.0000E+00   8.0000E-01   7.0000E+00
          1     1.0000E+01   9.0000E-01   8.5000E+00
          1     2.0000E+01   1.1000E+00   1.2000E+01
          1     3.0000E+01   1.2500E+00   1.4000E+01
          1     5.0000E+01   1.4000E+00   1.7000E+01
          1     7.5000E+01   1.7000E+00   2.0000E+01
          1     1.0000E+02   1.8000E+00   2.2000E+01



TABULAR INFLOWS WERE READ FOR SEGMENT      1
FROM FILE UNIT NUMBER     55

          TIMES                    INFLOWS
         0.0000000000E+00     0.1875000000E+01
         0.8640000000E+05     0.8250000000E+01
         0.2760000000E+07     0.1575000000E+02
         0.5270000000E+07     0.2887500000E+02
         0.7950000000E+07     0.1050000000E+02
         0.1050000000E+08     0.3712500000E+02
         0.1320000000E+08     0.3112500000E+02
         0.1580000000E+08     0.2812500000E+02
         0.1850000000E+08     0.2287500000E+02
         0.2120000000E+08     0.1762500000E+02
         0.2380000000E+08     0.1312500000E+02
         0.2640000000E+08     0.9750000000E+01
         0.2900000000E+08     0.8625000000E+01
         0.3170000000E+08     0.7125000000E+01
         0.3440000000E+08     0.7875000000E+01
         0.3680000000E+08     0.3675000000E+02
         0.3950000000E+08     0.2812500000E+02
         0.4210000000E+08     0.2362500000E+02
         0.4480000000E+08     0.2175000000E+02
         0.4730000000E+08     0.2025000000E+02
         0.5000000000E+08     0.1387500000E+02
         0.5270000000E+08     0.9375000000E+01
         0.5530000000E+08     0.8250000000E+01
         0.5800000000E+08     0.7875000000E+01
         0.6060000000E+08     0.7500000000E+01
         0.6320000000E+08     0.7125000000E+01
         0.6330000000E+08     0.8250000000E+01
         0.6600000000E+08     0.1575000000E+02
         0.6850000000E+08     0.2887500000E+02
         0.7120000000E+08     0.1050000000E+02
         0.7370000000E+08     0.3712500000E+02
         0.7640000000E+08     0.3112500000E+02
         0.7900000000E+08     0.2812500000E+02
         0.8170000000E+08     0.2287500000E+02
         0.8440000000E+08     0.1762500000E+02
         0.8700000000E+08     0.1312500000E+02
         0.8960000000E+08     0.9750000000E+01
         0.9220000000E+08     0.8625000000E+01
         0.9490000000E+08     0.7125000000E+01
         0.9760000000E+08     0.7875000000E+01
         0.1000000000E+09     0.3675000000E+02
         0.1030000000E+09     0.2812500000E+02
         0.1050000000E+09     0.2362500000E+02
         0.1080000000E+09     0.2175000000E+02
         0.1110000000E+09     0.2025000000E+02
         0.1130000000E+09     0.1387500000E+02
         0.1160000000E+09     0.9375000000E+01
         0.1190000000E+09     0.8250000000E+01
         0.1210000000E+09     0.7875000000E+01
         0.1240000000E+09     0.7500000000E+01
         0.1260000000E+09     0.7125000000E+01
TABULAR INFLOWS WERE READ FOR SEGMENT      9
FROM FILE UNIT NUMBER     56

          TIMES                    INFLOWS
         0.0000000000E+00     0.1000000000E+03
         0.8640000000E+05     0.1000000000E+03
         0.1730000000E+06     0.1000000000E+03
         0.2590000000E+06     0.1000000000E+03
         0.3460000000E+06     0.1000000000E+03
         0.4320000000E+06     0.1000000000E+03
         0.5180000000E+06     0.1000000000E+03
         0.6050000000E+06     0.1000000000E+03
         0.6910000000E+06     0.1000000000E+03
         0.7780000000E+06     0.1000000000E+03
         0.8640000000E+06     0.1000000000E+03
         0.9500000000E+06     0.1000000000E+03
         0.1040000000E+07     0.1000000000E+03
         0.1120000000E+07     0.1000000000E+03
         0.1210000000E+07     0.1000000000E+03
         0.1300000000E+07     0.1000000000E+03
         0.1380000000E+07     0.1000000000E+03
         0.1470000000E+07     0.1000000000E+03
         0.1560000000E+07     0.1000000000E+03
         0.1640000000E+07     0.1000000000E+03
         0.1730000000E+07     0.1000000000E+03
         0.1810000000E+07     0.1000000000E+03
         0.1900000000E+07     0.1000000000E+03
         0.1990000000E+07     0.1000000000E+03
         0.2070000000E+07     0.1000000000E+03
         0.2160000000E+07     0.1000000000E+03
         0.2250000000E+07     0.1000000000E+03
         0.2330000000E+07     0.1000000000E+03
         0.2420000000E+07     0.1000000000E+03
         0.2510000000E+07     0.1000000000E+03
         0.2590000000E+07     0.1000000000E+03
         0.2680000000E+07     0.1000000000E+03
         0.2760000000E+07     0.1000000000E+03
         0.2850000000E+07     0.1000000000E+03
         0.2940000000E+07     0.1000000000E+03
         0.3020000000E+07     0.1000000000E+03
         0.3110000000E+07     0.1000000000E+03
         0.3200000000E+07     0.1000000000E+03
         0.3280000000E+07     0.1000000000E+03
         0.3370000000E+07     0.1000000000E+03
         0.3460000000E+07     0.1000000000E+03
         0.3540000000E+07     0.1000000000E+03
         0.3630000000E+07     0.1000000000E+03
         0.3720000000E+07     0.1000000000E+03
         0.3800000000E+07     0.1000000000E+03
         0.3890000000E+07     0.1000000000E+03
         0.3970000000E+07     0.1000000000E+03
         0.4060000000E+07     0.1000000000E+03
         0.4150000000E+07     0.1000000000E+03
         0.4230000000E+07     0.1000000000E+03
         0.4320000000E+07     0.1000000000E+03
         0.4410000000E+07     0.1000000000E+03
         0.4490000000E+07     0.1000000000E+03
         0.4580000000E+07     0.1000000000E+03
         0.4670000000E+07     0.1000000000E+03
         0.4750000000E+07     0.1000000000E+03
         0.4840000000E+07     0.1000000000E+03
         0.4920000000E+07     0.1000000000E+03
         0.5010000000E+07     0.1000000000E+03
         0.5100000000E+07     0.1000000000E+03
         0.5180000000E+07     0.1000000000E+03
         0.5270000000E+07     0.1000000000E+03
         0.5360000000E+07     0.1000000000E+03
         0.5440000000E+07     0.1000000000E+03
         0.5530000000E+07     0.1000000000E+03
         0.5620000000E+07     0.1000000000E+03
         0.5700000000E+07     0.1000000000E+03
         0.5790000000E+07     0.1000000000E+03
         0.5880000000E+07     0.1000000000E+03
         0.5960000000E+07     0.1000000000E+03
         0.6050000000E+07     0.1000000000E+03
         0.6130000000E+07     0.1000000000E+03
         0.6220000000E+07     0.1000000000E+03
         0.6310000000E+07     0.1000000000E+03
         0.6390000000E+07     0.1000000000E+03
         0.6480000000E+07     0.1000000000E+03
         0.6570000000E+07     0.1000000000E+03
         0.6650000000E+07     0.1000000000E+03
         0.6740000000E+07     0.1000000000E+03
         0.6830000000E+07     0.1000000000E+03
         0.6910000000E+07     0.1000000000E+03
         0.7000000000E+07     0.1000000000E+03
         0.7080000000E+07     0.1000000000E+03
         0.7170000000E+07     0.1000000000E+03
         0.7260000000E+07     0.1000000000E+03
         0.7340000000E+07     0.1000000000E+03
         0.7430000000E+07     0.1000000000E+03
         0.7520000000E+07     0.1000000000E+03
         0.7600000000E+07     0.1000000000E+03
         0.7690000000E+07     0.1000000000E+03
         0.7780000000E+07     0.1000000000E+03
         0.7860000000E+07     0.1000000000E+03
         0.7950000000E+07     0.1000000000E+03
         0.8040000000E+07     0.1000000000E+03
         0.8120000000E+07     0.1000000000E+03
         0.8210000000E+07     0.1000000000E+03
         0.8290000000E+07     0.1000000000E+03
         0.8380000000E+07     0.1000000000E+03
         0.8470000000E+07     0.1000000000E+03
         0.8550000000E+07     0.1000000000E+03
         0.8640000000E+07     0.1000000000E+03
         0.8730000000E+07     0.1000000000E+03
         0.8810000000E+07     0.1000000000E+03
         0.8900000000E+07     0.1000000000E+03
         0.8990000000E+07     0.1000000000E+03
         0.9070000000E+07     0.1000000000E+03
         0.9160000000E+07     0.1000000000E+03
         0.9240000000E+07     0.1000000000E+03
         0.9330000000E+07     0.1000000000E+03
         0.9420000000E+07     0.1000000000E+03
         0.9500000000E+07     0.1000000000E+03
         0.9590000000E+07     0.1000000000E+03
         0.9680000000E+07     0.1000000000E+03
         0.9760000000E+07     0.1000000000E+03
         0.9850000000E+07     0.1000000000E+03
         0.9940000000E+07     0.1000000000E+03
         0.1000000000E+08     0.1000000000E+03
         0.1010000000E+08     0.1000000000E+03
         0.1020000000E+08     0.1000000000E+03
         0.1030000000E+08     0.1000000000E+03
         0.1040000000E+08     0.1000000000E+03
         0.1050000000E+08     0.1000000000E+03
         0.1050000000E+08     0.1000000000E+03
         0.1060000000E+08     0.1000000000E+03
         0.1070000000E+08     0.1000000000E+03
         0.1080000000E+08     0.1000000000E+03
         0.1090000000E+08     0.1000000000E+03
         0.1100000000E+08     0.1000000000E+03
         0.1110000000E+08     0.1000000000E+03
         0.1110000000E+08     0.1000000000E+03
         0.1120000000E+08     0.1000000000E+03
         0.1130000000E+08     0.1000000000E+03
         0.1140000000E+08     0.1000000000E+03
         0.1150000000E+08     0.1000000000E+03
         0.1160000000E+08     0.1000000000E+03
         0.1170000000E+08     0.1000000000E+03
         0.1180000000E+08     0.1000000000E+03
         0.1180000000E+08     0.1000000000E+03
         0.1190000000E+08     0.1000000000E+03
         0.1200000000E+08     0.1000000000E+03
         0.1210000000E+08     0.1000000000E+03
         0.1220000000E+08     0.1000000000E+03
         0.1230000000E+08     0.1000000000E+03
         0.1240000000E+08     0.1000000000E+03
         0.1240000000E+08     0.1000000000E+03
         0.1250000000E+08     0.1000000000E+03
         0.1260000000E+08     0.1000000000E+03
         0.1270000000E+08     0.1000000000E+03
         0.1280000000E+08     0.1000000000E+03
         0.1290000000E+08     0.1000000000E+03
         0.1300000000E+08     0.1000000000E+03
         0.1300000000E+08     0.1000000000E+03
         0.1310000000E+08     0.1000000000E+03
         0.1320000000E+08     0.1000000000E+03
         0.1330000000E+08     0.1000000000E+03
         0.1340000000E+08     0.1000000000E+03
         0.1350000000E+08     0.1000000000E+03
         0.1360000000E+08     0.1000000000E+03
         0.1370000000E+08     0.1000000000E+03
         0.1370000000E+08     0.1000000000E+03
         0.1380000000E+08     0.1000000000E+03
         0.1390000000E+08     0.1000000000E+03
         0.1400000000E+08     0.1000000000E+03
         0.1410000000E+08     0.1000000000E+03
         0.1420000000E+08     0.1000000000E+03
         0.1430000000E+08     0.1000000000E+03
         0.1430000000E+08     0.1000000000E+03
         0.1440000000E+08     0.1000000000E+03
         0.1450000000E+08     0.1000000000E+03
         0.1460000000E+08     0.1000000000E+03
         0.1470000000E+08     0.1000000000E+03
         0.1480000000E+08     0.1000000000E+03
         0.1490000000E+08     0.1000000000E+03
         0.1490000000E+08     0.1000000000E+03
         0.1500000000E+08     0.1000000000E+03
         0.1510000000E+08     0.1000000000E+03
         0.1520000000E+08     0.1000000000E+03
         0.1530000000E+08     0.1000000000E+03
         0.1540000000E+08     0.1000000000E+03
         0.1550000000E+08     0.1000000000E+03
         0.1560000000E+08     0.1000000000E+03
         0.1560000000E+08     0.1000000000E+03
         0.1570000000E+08     0.1000000000E+03
         0.1580000000E+08     0.1000000000E+03
         0.1590000000E+08     0.1000000000E+03
         0.1600000000E+08     0.1000000000E+03
         0.1610000000E+08     0.1000000000E+03
         0.1620000000E+08     0.1000000000E+03
         0.1620000000E+08     0.1000000000E+03
         0.1630000000E+08     0.1000000000E+03
         0.1640000000E+08     0.1000000000E+03
         0.1650000000E+08     0.1000000000E+03
         0.1660000000E+08     0.1000000000E+03
         0.1670000000E+08     0.1000000000E+03
         0.1680000000E+08     0.1000000000E+03
         0.1680000000E+08     0.1000000000E+03
         0.1690000000E+08     0.1000000000E+03
         0.1700000000E+08     0.1000000000E+03
         0.1710000000E+08     0.1000000000E+03
         0.1720000000E+08     0.1000000000E+03
         0.1730000000E+08     0.1000000000E+03
         0.1740000000E+08     0.1000000000E+03
         0.1750000000E+08     0.1000000000E+03
         0.1750000000E+08     0.1000000000E+03
         0.1760000000E+08     0.1000000000E+03
         0.1770000000E+08     0.1000000000E+03
         0.1780000000E+08     0.1000000000E+03
         0.1790000000E+08     0.1000000000E+03
         0.1800000000E+08     0.1000000000E+03
         0.1810000000E+08     0.1000000000E+03
         0.1810000000E+08     0.1000000000E+03
         0.1820000000E+08     0.1000000000E+03
         0.1830000000E+08     0.1000000000E+03
         0.1840000000E+08     0.1000000000E+03
         0.1850000000E+08     0.1000000000E+03
         0.1860000000E+08     0.1000000000E+03
         0.1870000000E+08     0.1000000000E+03
         0.1870000000E+08     0.1000000000E+03
         0.1880000000E+08     0.1000000000E+03
         0.1890000000E+08     0.1000000000E+03
         0.1900000000E+08     0.1000000000E+03
         0.1910000000E+08     0.1000000000E+03
         0.1920000000E+08     0.1000000000E+03
         0.1930000000E+08     0.1000000000E+03
         0.1940000000E+08     0.1000000000E+03
         0.1940000000E+08     0.1000000000E+03
         0.1950000000E+08     0.1000000000E+03
         0.1960000000E+08     0.1000000000E+03
         0.1970000000E+08     0.1000000000E+03
         0.1980000000E+08     0.1000000000E+03
         0.1990000000E+08     0.1000000000E+03
         0.2000000000E+08     0.1000000000E+03
         0.2000000000E+08     0.1000000000E+03
         0.2010000000E+08     0.1000000000E+03
         0.2020000000E+08     0.1000000000E+03
         0.2030000000E+08     0.1000000000E+03
         0.2040000000E+08     0.1000000000E+03
         0.2050000000E+08     0.1000000000E+03
         0.2060000000E+08     0.1000000000E+03
         0.2070000000E+08     0.1000000000E+03
         0.2070000000E+08     0.1000000000E+03
         0.2080000000E+08     0.1000000000E+03
         0.2090000000E+08     0.1000000000E+03
         0.2100000000E+08     0.1000000000E+03
         0.2110000000E+08     0.1000000000E+03
         0.2120000000E+08     0.1000000000E+03
         0.2130000000E+08     0.1000000000E+03
         0.2130000000E+08     0.1000000000E+03
         0.2140000000E+08     0.1000000000E+03
         0.2150000000E+08     0.1000000000E+03
         0.2160000000E+08     0.1000000000E+03
         0.2170000000E+08     0.1000000000E+03
         0.2180000000E+08     0.1000000000E+03
         0.2190000000E+08     0.1000000000E+03
         0.2190000000E+08     0.1000000000E+03
         0.2200000000E+08     0.1000000000E+03
         0.2210000000E+08     0.1000000000E+03
         0.2220000000E+08     0.1000000000E+03
         0.2230000000E+08     0.1000000000E+03
         0.2240000000E+08     0.1000000000E+03
         0.2250000000E+08     0.1000000000E+03
         0.2260000000E+08     0.1000000000E+03
         0.2260000000E+08     0.1000000000E+03
         0.2270000000E+08     0.1000000000E+03
         0.2280000000E+08     0.1000000000E+03
         0.2290000000E+08     0.1000000000E+03
         0.2300000000E+08     0.1000000000E+03
         0.2310000000E+08     0.1000000000E+03
         0.2320000000E+08     0.1000000000E+03
         0.2320000000E+08     0.1000000000E+03
         0.2330000000E+08     0.1000000000E+03
         0.2340000000E+08     0.1000000000E+03
         0.2350000000E+08     0.1000000000E+03
         0.2360000000E+08     0.1000000000E+03
         0.2370000000E+08     0.1000000000E+03
         0.2380000000E+08     0.1000000000E+03
         0.2380000000E+08     0.1000000000E+03
         0.2390000000E+08     0.1000000000E+03
         0.2400000000E+08     0.1000000000E+03
         0.2410000000E+08     0.1000000000E+03
         0.2420000000E+08     0.1000000000E+03
         0.2430000000E+08     0.1000000000E+03
         0.2440000000E+08     0.1000000000E+03
         0.2450000000E+08     0.1000000000E+03
         0.2450000000E+08     0.1000000000E+03
         0.2460000000E+08     0.1000000000E+03
         0.2470000000E+08     0.1000000000E+03
         0.2480000000E+08     0.1000000000E+03
         0.2490000000E+08     0.1000000000E+03
         0.2500000000E+08     0.1000000000E+03
         0.2510000000E+08     0.1000000000E+03
         0.2510000000E+08     0.1000000000E+03
         0.2520000000E+08     0.1000000000E+03
         0.2530000000E+08     0.1000000000E+03
         0.2540000000E+08     0.1000000000E+03
         0.2550000000E+08     0.1000000000E+03
         0.2560000000E+08     0.1000000000E+03
         0.2570000000E+08     0.1000000000E+03
         0.2570000000E+08     0.1000000000E+03
         0.2580000000E+08     0.1000000000E+03
         0.2590000000E+08     0.1000000000E+03
         0.2600000000E+08     0.1000000000E+03
         0.2610000000E+08     0.1000000000E+03
         0.2620000000E+08     0.1000000000E+03
         0.2630000000E+08     0.1000000000E+03
         0.2640000000E+08     0.1000000000E+03
         0.2640000000E+08     0.1000000000E+03
         0.2650000000E+08     0.1000000000E+03
         0.2660000000E+08     0.1000000000E+03
         0.2670000000E+08     0.1000000000E+03
         0.2680000000E+08     0.1000000000E+03
         0.2690000000E+08     0.1000000000E+03
         0.2700000000E+08     0.1000000000E+03
         0.2700000000E+08     0.1000000000E+03
         0.2710000000E+08     0.1000000000E+03
         0.2720000000E+08     0.1000000000E+03
         0.2730000000E+08     0.1000000000E+03
         0.2740000000E+08     0.1000000000E+03
         0.2750000000E+08     0.1000000000E+03
         0.2760000000E+08     0.1000000000E+03
         0.2760000000E+08     0.1000000000E+03
         0.2770000000E+08     0.1000000000E+03
         0.2780000000E+08     0.1000000000E+03
         0.2790000000E+08     0.1000000000E+03
         0.2800000000E+08     0.1000000000E+03
         0.2810000000E+08     0.1000000000E+03
         0.2820000000E+08     0.1000000000E+03
         0.2830000000E+08     0.1000000000E+03
         0.2830000000E+08     0.1000000000E+03
         0.2840000000E+08     0.1000000000E+03
         0.2850000000E+08     0.1000000000E+03
         0.2860000000E+08     0.1000000000E+03
         0.2870000000E+08     0.1000000000E+03
         0.2880000000E+08     0.1000000000E+03
         0.2890000000E+08     0.1000000000E+03
         0.2890000000E+08     0.1000000000E+03
         0.2900000000E+08     0.1000000000E+03
         0.2910000000E+08     0.1000000000E+03
         0.2920000000E+08     0.1000000000E+03
         0.2930000000E+08     0.1000000000E+03
         0.2940000000E+08     0.1000000000E+03
         0.2950000000E+08     0.1000000000E+03
         0.2950000000E+08     0.1000000000E+03
         0.2960000000E+08     0.1000000000E+03
         0.2970000000E+08     0.1000000000E+03
         0.2980000000E+08     0.1000000000E+03
         0.2990000000E+08     0.1000000000E+03
         0.3000000000E+08     0.1000000000E+03
         0.3010000000E+08     0.1000000000E+03
         0.3020000000E+08     0.1000000000E+03
         0.3020000000E+08     0.1000000000E+03
         0.3030000000E+08     0.1000000000E+03
         0.3040000000E+08     0.1000000000E+03
         0.3050000000E+08     0.1000000000E+03
         0.3060000000E+08     0.1000000000E+03
         0.3070000000E+08     0.1000000000E+03
         0.3080000000E+08     0.1000000000E+03
         0.3080000000E+08     0.1000000000E+03
         0.3090000000E+08     0.1000000000E+03
         0.3100000000E+08     0.1000000000E+03
         0.3110000000E+08     0.1000000000E+03
         0.3120000000E+08     0.1000000000E+03
         0.3130000000E+08     0.1000000000E+03
         0.3140000000E+08     0.1000000000E+03
         0.3150000000E+08     0.1000000000E+03
         0.3150000000E+08     0.1000000000E+03
         0.3160000000E+08     0.1000000000E+03
         0.3170000000E+08     0.1000000000E+03
         0.3180000000E+08     0.1000000000E+03
         0.3190000000E+08     0.1000000000E+03
         0.3200000000E+08     0.1000000000E+03
         0.3210000000E+08     0.1000000000E+03
         0.3210000000E+08     0.1000000000E+03
         0.3220000000E+08     0.1000000000E+03
         0.3230000000E+08     0.1000000000E+03
         0.3240000000E+08     0.1000000000E+03
         0.3250000000E+08     0.1000000000E+03
         0.3260000000E+08     0.1000000000E+03
         0.3270000000E+08     0.1000000000E+03
         0.3270000000E+08     0.1000000000E+03
         0.3280000000E+08     0.1000000000E+03
         0.3290000000E+08     0.1000000000E+03
         0.3300000000E+08     0.1000000000E+03
         0.3310000000E+08     0.1000000000E+03
         0.3320000000E+08     0.1000000000E+03
         0.3330000000E+08     0.1000000000E+03
         0.3340000000E+08     0.1000000000E+03
         0.3340000000E+08     0.1000000000E+03
         0.3350000000E+08     0.1000000000E+03
         0.3360000000E+08     0.1000000000E+03
         0.3370000000E+08     0.1000000000E+03
         0.3380000000E+08     0.1000000000E+03
         0.3390000000E+08     0.1000000000E+03
         0.3400000000E+08     0.1000000000E+03
         0.3400000000E+08     0.1000000000E+03
         0.3410000000E+08     0.1000000000E+03
         0.3420000000E+08     0.1000000000E+03
         0.3430000000E+08     0.1000000000E+03
         0.3440000000E+08     0.1000000000E+03
         0.3450000000E+08     0.1000000000E+03
         0.3460000000E+08     0.1000000000E+03
         0.3460000000E+08     0.1000000000E+03
         0.3470000000E+08     0.1000000000E+03
         0.3480000000E+08     0.1000000000E+03
         0.3490000000E+08     0.1000000000E+03
         0.3500000000E+08     0.1000000000E+03
         0.3510000000E+08     0.1000000000E+03
         0.3520000000E+08     0.1000000000E+03
         0.3530000000E+08     0.1000000000E+03
         0.3530000000E+08     0.1000000000E+03
         0.3540000000E+08     0.1000000000E+03
         0.3550000000E+08     0.1000000000E+03
         0.3560000000E+08     0.1000000000E+03
         0.3570000000E+08     0.1000000000E+03
         0.3580000000E+08     0.1000000000E+03
         0.3590000000E+08     0.1000000000E+03
         0.3590000000E+08     0.1000000000E+03
         0.3600000000E+08     0.1000000000E+03
         0.3610000000E+08     0.1000000000E+03
         0.3620000000E+08     0.1000000000E+03
         0.3630000000E+08     0.1000000000E+03
         0.3640000000E+08     0.1000000000E+03
         0.3650000000E+08     0.1000000000E+03
         0.3650000000E+08     0.1000000000E+03
         0.3660000000E+08     0.1000000000E+03
         0.3670000000E+08     0.1000000000E+03
         0.3680000000E+08     0.1000000000E+03
         0.3690000000E+08     0.1000000000E+03
         0.3700000000E+08     0.1000000000E+03
         0.3710000000E+08     0.1000000000E+03
         0.3720000000E+08     0.1000000000E+03
         0.3720000000E+08     0.1000000000E+03
         0.3730000000E+08     0.1000000000E+03
         0.3740000000E+08     0.1000000000E+03
         0.3750000000E+08     0.1000000000E+03
         0.3760000000E+08     0.1000000000E+03
         0.3770000000E+08     0.1000000000E+03
         0.3780000000E+08     0.1000000000E+03
         0.3780000000E+08     0.1000000000E+03
         0.3790000000E+08     0.1000000000E+03
         0.3800000000E+08     0.1000000000E+03
         0.3810000000E+08     0.1000000000E+03
         0.3820000000E+08     0.1000000000E+03
         0.3830000000E+08     0.1000000000E+03
         0.3840000000E+08     0.1000000000E+03
         0.3840000000E+08     0.1000000000E+03
         0.3850000000E+08     0.1000000000E+03
         0.3860000000E+08     0.1000000000E+03
         0.3870000000E+08     0.1000000000E+03
         0.3880000000E+08     0.1000000000E+03
         0.3890000000E+08     0.1000000000E+03
         0.3900000000E+08     0.1000000000E+03
         0.3910000000E+08     0.1000000000E+03
         0.3910000000E+08     0.1000000000E+03
         0.3920000000E+08     0.1000000000E+03
         0.3930000000E+08     0.1000000000E+03
         0.3940000000E+08     0.1000000000E+03
         0.3950000000E+08     0.1000000000E+03
         0.3960000000E+08     0.1000000000E+03
         0.3970000000E+08     0.1000000000E+03
         0.3970000000E+08     0.1000000000E+03
         0.3980000000E+08     0.1000000000E+03
         0.3990000000E+08     0.1000000000E+03
         0.4000000000E+08     0.1000000000E+03
         0.4010000000E+08     0.1000000000E+03
         0.4020000000E+08     0.1000000000E+03
         0.4030000000E+08     0.1000000000E+03
         0.4030000000E+08     0.1000000000E+03
         0.4040000000E+08     0.1000000000E+03
         0.4050000000E+08     0.1000000000E+03
         0.4060000000E+08     0.1000000000E+03
         0.4070000000E+08     0.1000000000E+03
         0.4080000000E+08     0.1000000000E+03
         0.4090000000E+08     0.1000000000E+03
         0.4100000000E+08     0.1000000000E+03
         0.4100000000E+08     0.1000000000E+03
         0.4110000000E+08     0.1000000000E+03
         0.4120000000E+08     0.1000000000E+03
         0.4130000000E+08     0.1000000000E+03
         0.4140000000E+08     0.1000000000E+03
         0.4150000000E+08     0.1000000000E+03
         0.4160000000E+08     0.1000000000E+03
         0.4160000000E+08     0.1000000000E+03
         0.4170000000E+08     0.1000000000E+03
         0.4180000000E+08     0.1000000000E+03
         0.4190000000E+08     0.1000000000E+03
         0.4200000000E+08     0.1000000000E+03
         0.4210000000E+08     0.1000000000E+03
         0.4220000000E+08     0.1000000000E+03
         0.4230000000E+08     0.1000000000E+03
         0.4230000000E+08     0.1000000000E+03
         0.4240000000E+08     0.1000000000E+03
         0.4250000000E+08     0.1000000000E+03
         0.4260000000E+08     0.1000000000E+03
         0.4270000000E+08     0.1000000000E+03
         0.4280000000E+08     0.1000000000E+03
         0.4290000000E+08     0.1000000000E+03
         0.4290000000E+08     0.1000000000E+03
         0.4300000000E+08     0.1000000000E+03
         0.4310000000E+08     0.1000000000E+03
         0.4320000000E+08     0.1000000000E+03
         0.4330000000E+08     0.1000000000E+03
         0.4340000000E+08     0.1000000000E+03
         0.4350000000E+08     0.1000000000E+03
         0.4350000000E+08     0.1000000000E+03
         0.4360000000E+08     0.1000000000E+03
         0.4370000000E+08     0.1000000000E+03
         0.4380000000E+08     0.1000000000E+03
         0.4390000000E+08     0.1000000000E+03
         0.4400000000E+08     0.1000000000E+03
         0.4410000000E+08     0.1000000000E+03
         0.4420000000E+08     0.1000000000E+03
         0.4420000000E+08     0.1000000000E+03
         0.4430000000E+08     0.1000000000E+03
         0.4440000000E+08     0.1000000000E+03
         0.4450000000E+08     0.1000000000E+03
         0.4460000000E+08     0.1000000000E+03
         0.4470000000E+08     0.1000000000E+03
         0.4480000000E+08     0.1000000000E+03
         0.4480000000E+08     0.1000000000E+03
         0.4490000000E+08     0.1000000000E+03
         0.4500000000E+08     0.1000000000E+03
         0.4510000000E+08     0.1000000000E+03
         0.4520000000E+08     0.1000000000E+03
         0.4530000000E+08     0.1000000000E+03
         0.4540000000E+08     0.1000000000E+03
         0.4540000000E+08     0.1000000000E+03
         0.4550000000E+08     0.1000000000E+03
         0.4560000000E+08     0.1000000000E+03
         0.4570000000E+08     0.1000000000E+03
         0.4580000000E+08     0.1000000000E+03
         0.4590000000E+08     0.1000000000E+03
         0.4600000000E+08     0.1000000000E+03
         0.4610000000E+08     0.1000000000E+03
         0.4610000000E+08     0.1000000000E+03
         0.4620000000E+08     0.1000000000E+03
         0.4630000000E+08     0.1000000000E+03
         0.4640000000E+08     0.1000000000E+03
         0.4650000000E+08     0.1000000000E+03
         0.4660000000E+08     0.1000000000E+03
         0.4670000000E+08     0.1000000000E+03
         0.4670000000E+08     0.1000000000E+03
         0.4680000000E+08     0.1000000000E+03
         0.4690000000E+08     0.1000000000E+03
         0.4700000000E+08     0.1000000000E+03
         0.4710000000E+08     0.1000000000E+03
         0.4720000000E+08     0.1000000000E+03
         0.4730000000E+08     0.1000000000E+03
         0.4730000000E+08     0.1000000000E+03
         0.4740000000E+08     0.1000000000E+03
         0.4750000000E+08     0.1000000000E+03
         0.4760000000E+08     0.1000000000E+03
         0.4770000000E+08     0.1000000000E+03
         0.4780000000E+08     0.1000000000E+03
         0.4790000000E+08     0.1000000000E+03
         0.4800000000E+08     0.1000000000E+03
         0.4800000000E+08     0.1000000000E+03
         0.4810000000E+08     0.1000000000E+03
         0.4820000000E+08     0.1000000000E+03
         0.4830000000E+08     0.1000000000E+03
         0.4840000000E+08     0.1000000000E+03
         0.4850000000E+08     0.1000000000E+03
         0.4860000000E+08     0.1000000000E+03
         0.4860000000E+08     0.1000000000E+03
         0.4870000000E+08     0.1000000000E+03
         0.4880000000E+08     0.1000000000E+03
         0.4890000000E+08     0.1000000000E+03
         0.4900000000E+08     0.1000000000E+03
         0.4910000000E+08     0.1000000000E+03
         0.4920000000E+08     0.1000000000E+03
         0.4920000000E+08     0.1000000000E+03
         0.4930000000E+08     0.1000000000E+03
         0.4940000000E+08     0.1000000000E+03
         0.4950000000E+08     0.1000000000E+03
         0.4960000000E+08     0.1000000000E+03
         0.4970000000E+08     0.1000000000E+03
         0.4980000000E+08     0.1000000000E+03
         0.4990000000E+08     0.1000000000E+03
         0.4990000000E+08     0.1000000000E+03
         0.5000000000E+08     0.1000000000E+03
         0.5010000000E+08     0.1000000000E+03
         0.5020000000E+08     0.1000000000E+03
         0.5030000000E+08     0.1000000000E+03
         0.5040000000E+08     0.1000000000E+03
         0.5050000000E+08     0.1000000000E+03
         0.5050000000E+08     0.1000000000E+03
         0.5060000000E+08     0.1000000000E+03
         0.5070000000E+08     0.1000000000E+03
         0.5080000000E+08     0.1000000000E+03
         0.5090000000E+08     0.1000000000E+03
         0.5100000000E+08     0.1000000000E+03
         0.5110000000E+08     0.1000000000E+03
         0.5110000000E+08     0.1000000000E+03
         0.5120000000E+08     0.1000000000E+03
         0.5130000000E+08     0.1000000000E+03
         0.5140000000E+08     0.1000000000E+03
         0.5150000000E+08     0.1000000000E+03
         0.5160000000E+08     0.1000000000E+03
         0.5170000000E+08     0.1000000000E+03
         0.5180000000E+08     0.1000000000E+03
         0.5180000000E+08     0.1000000000E+03
         0.5190000000E+08     0.1000000000E+03
         0.5200000000E+08     0.1000000000E+03
         0.5210000000E+08     0.1000000000E+03
         0.5220000000E+08     0.1000000000E+03
         0.5230000000E+08     0.1000000000E+03
         0.5240000000E+08     0.1000000000E+03
         0.5240000000E+08     0.1000000000E+03
         0.5250000000E+08     0.1000000000E+03
         0.5260000000E+08     0.1000000000E+03
         0.5270000000E+08     0.1000000000E+03
         0.5280000000E+08     0.1000000000E+03
         0.5290000000E+08     0.1000000000E+03
         0.5300000000E+08     0.1000000000E+03
         0.5310000000E+08     0.1000000000E+03
         0.5310000000E+08     0.1000000000E+03
         0.5320000000E+08     0.1000000000E+03
         0.5330000000E+08     0.1000000000E+03
         0.5340000000E+08     0.1000000000E+03
         0.5350000000E+08     0.1000000000E+03
         0.5360000000E+08     0.1000000000E+03
         0.5370000000E+08     0.1000000000E+03
         0.5370000000E+08     0.1000000000E+03
         0.5380000000E+08     0.1000000000E+03
         0.5390000000E+08     0.1000000000E+03
         0.5400000000E+08     0.1000000000E+03
         0.5410000000E+08     0.1000000000E+03
         0.5420000000E+08     0.1000000000E+03
         0.5430000000E+08     0.1000000000E+03
         0.5430000000E+08     0.1000000000E+03
         0.5440000000E+08     0.1000000000E+03
         0.5450000000E+08     0.1000000000E+03
         0.5460000000E+08     0.1000000000E+03
         0.5470000000E+08     0.1000000000E+03
         0.5480000000E+08     0.1000000000E+03
         0.5490000000E+08     0.1000000000E+03
         0.5500000000E+08     0.1000000000E+03
         0.5500000000E+08     0.1000000000E+03
         0.5510000000E+08     0.1000000000E+03
         0.5520000000E+08     0.1000000000E+03
         0.5530000000E+08     0.1000000000E+03
         0.5540000000E+08     0.1000000000E+03
         0.5550000000E+08     0.1000000000E+03
         0.5560000000E+08     0.1000000000E+03
         0.5560000000E+08     0.1000000000E+03
         0.5570000000E+08     0.1000000000E+03
         0.5580000000E+08     0.1000000000E+03
         0.5590000000E+08     0.1000000000E+03
         0.5600000000E+08     0.1000000000E+03
         0.5610000000E+08     0.1000000000E+03
         0.5620000000E+08     0.1000000000E+03
         0.5620000000E+08     0.1000000000E+03
         0.5630000000E+08     0.1000000000E+03
         0.5640000000E+08     0.1000000000E+03
         0.5650000000E+08     0.1000000000E+03
         0.5660000000E+08     0.1000000000E+03
         0.5670000000E+08     0.1000000000E+03
         0.5680000000E+08     0.1000000000E+03
         0.5690000000E+08     0.1000000000E+03
         0.5690000000E+08     0.1000000000E+03
         0.5700000000E+08     0.1000000000E+03
         0.5710000000E+08     0.1000000000E+03
         0.5720000000E+08     0.1000000000E+03
         0.5730000000E+08     0.1000000000E+03
         0.5740000000E+08     0.1000000000E+03
         0.5750000000E+08     0.1000000000E+03
         0.5750000000E+08     0.1000000000E+03
         0.5760000000E+08     0.1000000000E+03
         0.5770000000E+08     0.1000000000E+03
         0.5780000000E+08     0.1000000000E+03
         0.5790000000E+08     0.1000000000E+03
         0.5800000000E+08     0.1000000000E+03
         0.5810000000E+08     0.1000000000E+03
         0.5810000000E+08     0.1000000000E+03
         0.5820000000E+08     0.1000000000E+03
         0.5830000000E+08     0.1000000000E+03
         0.5840000000E+08     0.1000000000E+03
         0.5850000000E+08     0.1000000000E+03
         0.5860000000E+08     0.1000000000E+03
         0.5870000000E+08     0.1000000000E+03
         0.5880000000E+08     0.1000000000E+03
         0.5880000000E+08     0.1000000000E+03
         0.5890000000E+08     0.1000000000E+03
         0.5900000000E+08     0.1000000000E+03
         0.5910000000E+08     0.1000000000E+03
         0.5920000000E+08     0.1000000000E+03
         0.5930000000E+08     0.1000000000E+03
         0.5940000000E+08     0.1000000000E+03
         0.5940000000E+08     0.1000000000E+03
         0.5950000000E+08     0.1000000000E+03
         0.5960000000E+08     0.1000000000E+03
         0.5970000000E+08     0.1000000000E+03
         0.5980000000E+08     0.1000000000E+03
         0.5990000000E+08     0.1000000000E+03
         0.6000000000E+08     0.1000000000E+03
         0.6000000000E+08     0.1000000000E+03
         0.6010000000E+08     0.1000000000E+03
         0.6020000000E+08     0.1000000000E+03
         0.6030000000E+08     0.1000000000E+03
         0.6040000000E+08     0.1000000000E+03
         0.6050000000E+08     0.1000000000E+03
         0.6060000000E+08     0.1000000000E+03
         0.6070000000E+08     0.1000000000E+03
         0.6070000000E+08     0.1000000000E+03
         0.6080000000E+08     0.1000000000E+03
         0.6090000000E+08     0.1000000000E+03
         0.6100000000E+08     0.1000000000E+03
         0.6110000000E+08     0.1000000000E+03
         0.6120000000E+08     0.1000000000E+03
         0.6130000000E+08     0.1000000000E+03
         0.6130000000E+08     0.1000000000E+03
         0.6140000000E+08     0.1000000000E+03
         0.6150000000E+08     0.1000000000E+03
         0.6160000000E+08     0.1000000000E+03
         0.6170000000E+08     0.1000000000E+03
         0.6180000000E+08     0.1000000000E+03
         0.6190000000E+08     0.1000000000E+03
         0.6190000000E+08     0.1000000000E+03
         0.6200000000E+08     0.1000000000E+03
         0.6210000000E+08     0.1000000000E+03
         0.6220000000E+08     0.1000000000E+03
         0.6230000000E+08     0.1000000000E+03
         0.6240000000E+08     0.1000000000E+03
         0.6250000000E+08     0.1000000000E+03
         0.6260000000E+08     0.1000000000E+03
         0.6260000000E+08     0.1000000000E+03
         0.6270000000E+08     0.1000000000E+03
         0.6280000000E+08     0.1000000000E+03
         0.6290000000E+08     0.1000000000E+03
         0.6300000000E+08     0.1000000000E+03
         0.6310000000E+08     0.1000000000E+03
         0.6320000000E+08     0.1000000000E+03
         0.6320000000E+08     0.1000000000E+03
         0.6330000000E+08     0.1000000000E+03
         0.6340000000E+08     0.1000000000E+03
         0.6350000000E+08     0.1000000000E+03
         0.6360000000E+08     0.1000000000E+03
         0.6370000000E+08     0.1000000000E+03
         0.6380000000E+08     0.1000000000E+03
         0.6390000000E+08     0.1000000000E+03
         0.6390000000E+08     0.1000000000E+03
         0.6400000000E+08     0.1000000000E+03
         0.6410000000E+08     0.1000000000E+03
         0.6420000000E+08     0.1000000000E+03
         0.6430000000E+08     0.1000000000E+03
         0.6440000000E+08     0.1000000000E+03
         0.6450000000E+08     0.1000000000E+03
         0.6450000000E+08     0.1000000000E+03
         0.6460000000E+08     0.1000000000E+03
         0.6470000000E+08     0.1000000000E+03
         0.6480000000E+08     0.1000000000E+03
         0.6490000000E+08     0.1000000000E+03
         0.6500000000E+08     0.1000000000E+03
         0.6510000000E+08     0.1000000000E+03
         0.6510000000E+08     0.1000000000E+03
         0.6520000000E+08     0.1000000000E+03
         0.6530000000E+08     0.1000000000E+03
         0.6540000000E+08     0.1000000000E+03
         0.6550000000E+08     0.1000000000E+03
         0.6560000000E+08     0.1000000000E+03
         0.6570000000E+08     0.1000000000E+03
         0.6580000000E+08     0.1000000000E+03
         0.6590000000E+08     0.1000000000E+03
         0.6600000000E+08     0.1000000000E+03
         0.6610000000E+08     0.1000000000E+03
         0.6610000000E+08     0.1000000000E+03
         0.6620000000E+08     0.1000000000E+03
         0.6630000000E+08     0.1000000000E+03
         0.6640000000E+08     0.1000000000E+03
         0.6650000000E+08     0.1000000000E+03
         0.6660000000E+08     0.1000000000E+03
         0.6670000000E+08     0.1000000000E+03
         0.6670000000E+08     0.1000000000E+03
         0.6680000000E+08     0.1000000000E+03
         0.6690000000E+08     0.1000000000E+03
         0.6700000000E+08     0.1000000000E+03
         0.6710000000E+08     0.1000000000E+03
         0.6720000000E+08     0.1000000000E+03
         0.6730000000E+08     0.1000000000E+03
         0.6730000000E+08     0.1000000000E+03
         0.6740000000E+08     0.1000000000E+03
         0.6750000000E+08     0.1000000000E+03
         0.6760000000E+08     0.1000000000E+03
         0.6770000000E+08     0.1000000000E+03
         0.6780000000E+08     0.1000000000E+03
         0.6790000000E+08     0.1000000000E+03
         0.6800000000E+08     0.1000000000E+03
         0.6810000000E+08     0.1000000000E+03
         0.6820000000E+08     0.1000000000E+03
         0.6830000000E+08     0.1000000000E+03
         0.6830000000E+08     0.1000000000E+03
         0.6840000000E+08     0.1000000000E+03
         0.6850000000E+08     0.1000000000E+03
         0.6860000000E+08     0.1000000000E+03
         0.6870000000E+08     0.1000000000E+03
         0.6880000000E+08     0.1000000000E+03
         0.6890000000E+08     0.1000000000E+03
         0.6890000000E+08     0.1000000000E+03
         0.6900000000E+08     0.1000000000E+03
         0.6910000000E+08     0.1000000000E+03
         0.6920000000E+08     0.1000000000E+03
         0.6930000000E+08     0.1000000000E+03
         0.6940000000E+08     0.1000000000E+03
         0.6950000000E+08     0.1000000000E+03
         0.6950000000E+08     0.1000000000E+03
         0.6960000000E+08     0.1000000000E+03
         0.6970000000E+08     0.1000000000E+03
         0.6980000000E+08     0.1000000000E+03
         0.6990000000E+08     0.1000000000E+03
         0.7000000000E+08     0.1000000000E+03
         0.7010000000E+08     0.1000000000E+03
         0.7020000000E+08     0.1000000000E+03
         0.7030000000E+08     0.1000000000E+03
         0.7040000000E+08     0.1000000000E+03
         0.7050000000E+08     0.1000000000E+03
         0.7050000000E+08     0.1000000000E+03
         0.7060000000E+08     0.1000000000E+03
         0.7070000000E+08     0.1000000000E+03
         0.7080000000E+08     0.1000000000E+03
         0.7090000000E+08     0.1000000000E+03
         0.7100000000E+08     0.1000000000E+03
         0.7110000000E+08     0.1000000000E+03
         0.7110000000E+08     0.1000000000E+03
         0.7120000000E+08     0.1000000000E+03
         0.7130000000E+08     0.1000000000E+03
         0.7140000000E+08     0.1000000000E+03
         0.7150000000E+08     0.1000000000E+03
         0.7160000000E+08     0.1000000000E+03
         0.7170000000E+08     0.1000000000E+03
         0.7170000000E+08     0.1000000000E+03
         0.7180000000E+08     0.1000000000E+03
         0.7190000000E+08     0.1000000000E+03
         0.7200000000E+08     0.1000000000E+03
         0.7210000000E+08     0.1000000000E+03
         0.7220000000E+08     0.1000000000E+03
         0.7230000000E+08     0.1000000000E+03
         0.7240000000E+08     0.1000000000E+03
         0.7250000000E+08     0.1000000000E+03
         0.7260000000E+08     0.1000000000E+03
         0.7270000000E+08     0.1000000000E+03
         0.7270000000E+08     0.1000000000E+03
         0.7280000000E+08     0.1000000000E+03
         0.7290000000E+08     0.1000000000E+03
         0.7300000000E+08     0.1000000000E+03
         0.7310000000E+08     0.1000000000E+03
         0.7320000000E+08     0.1000000000E+03
         0.7330000000E+08     0.1000000000E+03
         0.7330000000E+08     0.1000000000E+03
         0.7340000000E+08     0.1000000000E+03
         0.7350000000E+08     0.1000000000E+03
         0.7360000000E+08     0.1000000000E+03
         0.7370000000E+08     0.1000000000E+03
         0.7380000000E+08     0.1000000000E+03
         0.7390000000E+08     0.1000000000E+03
         0.7390000000E+08     0.1000000000E+03
         0.7400000000E+08     0.1000000000E+03
         0.7410000000E+08     0.1000000000E+03
         0.7420000000E+08     0.1000000000E+03
         0.7430000000E+08     0.1000000000E+03
         0.7440000000E+08     0.1000000000E+03
         0.7450000000E+08     0.1000000000E+03
         0.7460000000E+08     0.1000000000E+03
         0.7470000000E+08     0.1000000000E+03
         0.7480000000E+08     0.1000000000E+03
         0.7490000000E+08     0.1000000000E+03
         0.7490000000E+08     0.1000000000E+03
         0.7500000000E+08     0.1000000000E+03
         0.7510000000E+08     0.1000000000E+03
         0.7520000000E+08     0.1000000000E+03
         0.7530000000E+08     0.1000000000E+03
         0.7540000000E+08     0.1000000000E+03
         0.7550000000E+08     0.1000000000E+03
         0.7550000000E+08     0.1000000000E+03
         0.7560000000E+08     0.1000000000E+03
         0.7570000000E+08     0.1000000000E+03
         0.7580000000E+08     0.1000000000E+03
         0.7590000000E+08     0.1000000000E+03
         0.7600000000E+08     0.1000000000E+03
         0.7610000000E+08     0.1000000000E+03
         0.7610000000E+08     0.1000000000E+03
         0.7620000000E+08     0.1000000000E+03
         0.7630000000E+08     0.1000000000E+03
         0.7640000000E+08     0.1000000000E+03
         0.7650000000E+08     0.1000000000E+03
         0.7660000000E+08     0.1000000000E+03
         0.7670000000E+08     0.1000000000E+03
         0.7680000000E+08     0.1000000000E+03
         0.7690000000E+08     0.1000000000E+03
         0.7700000000E+08     0.1000000000E+03
         0.7710000000E+08     0.1000000000E+03
         0.7710000000E+08     0.1000000000E+03
         0.7720000000E+08     0.1000000000E+03
         0.7730000000E+08     0.1000000000E+03
         0.7740000000E+08     0.1000000000E+03
         0.7750000000E+08     0.1000000000E+03
         0.7760000000E+08     0.1000000000E+03
         0.7770000000E+08     0.1000000000E+03
         0.7770000000E+08     0.1000000000E+03
         0.7780000000E+08     0.1000000000E+03
         0.7790000000E+08     0.1000000000E+03
         0.7800000000E+08     0.1000000000E+03
         0.7810000000E+08     0.1000000000E+03
         0.7820000000E+08     0.1000000000E+03
         0.7830000000E+08     0.1000000000E+03
         0.7830000000E+08     0.1000000000E+03
         0.7840000000E+08     0.1000000000E+03
         0.7850000000E+08     0.1000000000E+03
         0.7860000000E+08     0.1000000000E+03
         0.7870000000E+08     0.1000000000E+03
         0.7880000000E+08     0.1000000000E+03
         0.7890000000E+08     0.1000000000E+03
         0.7900000000E+08     0.1000000000E+03
         0.7910000000E+08     0.1000000000E+03
         0.7920000000E+08     0.1000000000E+03
         0.7930000000E+08     0.1000000000E+03
         0.7930000000E+08     0.1000000000E+03
         0.7940000000E+08     0.1000000000E+03
         0.7950000000E+08     0.1000000000E+03
         0.7960000000E+08     0.1000000000E+03
         0.7970000000E+08     0.1000000000E+03
         0.7980000000E+08     0.1000000000E+03
         0.7990000000E+08     0.1000000000E+03
         0.7990000000E+08     0.1000000000E+03
         0.8000000000E+08     0.1000000000E+03
         0.8010000000E+08     0.1000000000E+03
         0.8020000000E+08     0.1000000000E+03
         0.8030000000E+08     0.1000000000E+03
         0.8040000000E+08     0.1000000000E+03
         0.8050000000E+08     0.1000000000E+03
         0.8050000000E+08     0.1000000000E+03
         0.8060000000E+08     0.1000000000E+03
         0.8070000000E+08     0.1000000000E+03
         0.8080000000E+08     0.1000000000E+03
         0.8090000000E+08     0.1000000000E+03
         0.8100000000E+08     0.1000000000E+03
         0.8110000000E+08     0.1000000000E+03
         0.8120000000E+08     0.1000000000E+03
         0.8130000000E+08     0.1000000000E+03
         0.8140000000E+08     0.1000000000E+03
         0.8150000000E+08     0.1000000000E+03
         0.8150000000E+08     0.1000000000E+03
         0.8160000000E+08     0.1000000000E+03
         0.8170000000E+08     0.1000000000E+03
         0.8180000000E+08     0.1000000000E+03
         0.8190000000E+08     0.1000000000E+03
         0.8200000000E+08     0.1000000000E+03
         0.8210000000E+08     0.1000000000E+03
         0.8210000000E+08     0.1000000000E+03
         0.8220000000E+08     0.1000000000E+03
         0.8230000000E+08     0.1000000000E+03
         0.8240000000E+08     0.1000000000E+03
         0.8250000000E+08     0.1000000000E+03
         0.8260000000E+08     0.1000000000E+03
         0.8270000000E+08     0.1000000000E+03
         0.8270000000E+08     0.1000000000E+03
         0.8280000000E+08     0.1000000000E+03
         0.8290000000E+08     0.1000000000E+03
         0.8300000000E+08     0.1000000000E+03
         0.8310000000E+08     0.1000000000E+03
         0.8320000000E+08     0.1000000000E+03
         0.8330000000E+08     0.1000000000E+03
         0.8340000000E+08     0.1000000000E+03
         0.8350000000E+08     0.1000000000E+03
         0.8360000000E+08     0.1000000000E+03
         0.8370000000E+08     0.1000000000E+03
         0.8370000000E+08     0.1000000000E+03
         0.8380000000E+08     0.1000000000E+03
         0.8390000000E+08     0.1000000000E+03
         0.8400000000E+08     0.1000000000E+03
         0.8410000000E+08     0.1000000000E+03
         0.8420000000E+08     0.1000000000E+03
         0.8430000000E+08     0.1000000000E+03
         0.8430000000E+08     0.1000000000E+03
         0.8440000000E+08     0.1000000000E+03
         0.8450000000E+08     0.1000000000E+03
         0.8460000000E+08     0.1000000000E+03
         0.8470000000E+08     0.1000000000E+03
         0.8480000000E+08     0.1000000000E+03
         0.8490000000E+08     0.1000000000E+03
         0.8490000000E+08     0.1000000000E+03
         0.8500000000E+08     0.1000000000E+03
         0.8510000000E+08     0.1000000000E+03
         0.8520000000E+08     0.1000000000E+03
         0.8530000000E+08     0.1000000000E+03
         0.8540000000E+08     0.1000000000E+03
         0.8550000000E+08     0.1000000000E+03
         0.8560000000E+08     0.1000000000E+03
         0.8570000000E+08     0.1000000000E+03
         0.8580000000E+08     0.1000000000E+03
         0.8590000000E+08     0.1000000000E+03
         0.8590000000E+08     0.1000000000E+03
         0.8600000000E+08     0.1000000000E+03
         0.8610000000E+08     0.1000000000E+03
         0.8620000000E+08     0.1000000000E+03
         0.8630000000E+08     0.1000000000E+03
         0.8640000000E+08     0.1000000000E+03
         0.8650000000E+08     0.1000000000E+03
         0.8650000000E+08     0.1000000000E+03
         0.8660000000E+08     0.1000000000E+03
         0.8670000000E+08     0.1000000000E+03
         0.8680000000E+08     0.1000000000E+03
         0.8690000000E+08     0.1000000000E+03
         0.8700000000E+08     0.1000000000E+03
         0.8710000000E+08     0.1000000000E+03
         0.8710000000E+08     0.1000000000E+03
         0.8720000000E+08     0.1000000000E+03
         0.8730000000E+08     0.1000000000E+03
         0.8740000000E+08     0.1000000000E+03
         0.8750000000E+08     0.1000000000E+03
         0.8760000000E+08     0.1000000000E+03
         0.8770000000E+08     0.1000000000E+03
         0.8780000000E+08     0.1000000000E+03
         0.8790000000E+08     0.1000000000E+03
         0.8800000000E+08     0.1000000000E+03
         0.8810000000E+08     0.1000000000E+03
         0.8810000000E+08     0.1000000000E+03
         0.8820000000E+08     0.1000000000E+03
         0.8830000000E+08     0.1000000000E+03
         0.8840000000E+08     0.1000000000E+03
         0.8850000000E+08     0.1000000000E+03
         0.8860000000E+08     0.1000000000E+03
         0.8870000000E+08     0.1000000000E+03
         0.8870000000E+08     0.1000000000E+03
         0.8880000000E+08     0.1000000000E+03
         0.8890000000E+08     0.1000000000E+03
         0.8900000000E+08     0.1000000000E+03
         0.8910000000E+08     0.1000000000E+03
         0.8920000000E+08     0.1000000000E+03
         0.8930000000E+08     0.1000000000E+03
         0.8930000000E+08     0.1000000000E+03
         0.8940000000E+08     0.1000000000E+03
         0.8950000000E+08     0.1000000000E+03
         0.8960000000E+08     0.1000000000E+03
         0.8970000000E+08     0.1000000000E+03
         0.8980000000E+08     0.1000000000E+03
         0.8990000000E+08     0.1000000000E+03
         0.9000000000E+08     0.1000000000E+03
         0.9010000000E+08     0.1000000000E+03
         0.9020000000E+08     0.1000000000E+03
         0.9030000000E+08     0.1000000000E+03
         0.9030000000E+08     0.1000000000E+03
         0.9040000000E+08     0.1000000000E+03
         0.9050000000E+08     0.1000000000E+03
         0.9060000000E+08     0.1000000000E+03
         0.9070000000E+08     0.1000000000E+03
         0.9080000000E+08     0.1000000000E+03
         0.9090000000E+08     0.1000000000E+03
         0.9090000000E+08     0.1000000000E+03
         0.9100000000E+08     0.1000000000E+03
         0.9110000000E+08     0.1000000000E+03
         0.9120000000E+08     0.1000000000E+03
         0.9130000000E+08     0.1000000000E+03
         0.9140000000E+08     0.1000000000E+03
         0.9150000000E+08     0.1000000000E+03
         0.9150000000E+08     0.1000000000E+03
         0.9160000000E+08     0.1000000000E+03
         0.9170000000E+08     0.1000000000E+03
         0.9180000000E+08     0.1000000000E+03
         0.9190000000E+08     0.1000000000E+03
         0.9200000000E+08     0.1000000000E+03
         0.9210000000E+08     0.1000000000E+03
         0.9220000000E+08     0.1000000000E+03
         0.9230000000E+08     0.1000000000E+03
         0.9240000000E+08     0.1000000000E+03
         0.9250000000E+08     0.1000000000E+03
         0.9250000000E+08     0.1000000000E+03
         0.9260000000E+08     0.1000000000E+03
         0.9270000000E+08     0.1000000000E+03
         0.9280000000E+08     0.1000000000E+03
         0.9290000000E+08     0.1000000000E+03
         0.9300000000E+08     0.1000000000E+03
         0.9310000000E+08     0.1000000000E+03
         0.9310000000E+08     0.1000000000E+03
         0.9320000000E+08     0.1000000000E+03
         0.9330000000E+08     0.1000000000E+03
         0.9340000000E+08     0.1000000000E+03
         0.9350000000E+08     0.1000000000E+03
         0.9360000000E+08     0.1000000000E+03
         0.9370000000E+08     0.1000000000E+03
         0.9370000000E+08     0.1000000000E+03
         0.9380000000E+08     0.1000000000E+03
         0.9390000000E+08     0.1000000000E+03
         0.9400000000E+08     0.1000000000E+03
         0.9410000000E+08     0.1000000000E+03
         0.9420000000E+08     0.1000000000E+03
         0.9430000000E+08     0.1000000000E+03
         0.9440000000E+08     0.1000000000E+03
         0.9450000000E+08     0.1000000000E+03
         0.9460000000E+08     0.1000000000E+03
         0.9470000000E+08     0.1000000000E+03
         0.9470000000E+08     0.1000000000E+03
         0.9480000000E+08     0.1000000000E+03
         0.9490000000E+08     0.1000000000E+03
         0.9500000000E+08     0.1000000000E+03
         0.9510000000E+08     0.1000000000E+03
         0.9520000000E+08     0.1000000000E+03
         0.9530000000E+08     0.1000000000E+03
         0.9530000000E+08     0.1000000000E+03
         0.9540000000E+08     0.1000000000E+03
         0.9550000000E+08     0.1000000000E+03
         0.9560000000E+08     0.1000000000E+03
         0.9570000000E+08     0.1000000000E+03
         0.9580000000E+08     0.1000000000E+03
         0.9590000000E+08     0.1000000000E+03
         0.9590000000E+08     0.1000000000E+03
         0.9600000000E+08     0.1000000000E+03
         0.9610000000E+08     0.1000000000E+03
         0.9620000000E+08     0.1000000000E+03
         0.9630000000E+08     0.1000000000E+03
         0.9640000000E+08     0.1000000000E+03
         0.9650000000E+08     0.1000000000E+03
         0.9660000000E+08     0.1000000000E+03
         0.9670000000E+08     0.1000000000E+03
         0.9680000000E+08     0.1000000000E+03
         0.9690000000E+08     0.1000000000E+03
         0.9690000000E+08     0.1000000000E+03
         0.9700000000E+08     0.1000000000E+03
         0.9710000000E+08     0.1000000000E+03
         0.9720000000E+08     0.1000000000E+03
         0.9730000000E+08     0.1000000000E+03
         0.9740000000E+08     0.1000000000E+03
         0.9750000000E+08     0.1000000000E+03
         0.9750000000E+08     0.1000000000E+03
         0.9760000000E+08     0.1000000000E+03
         0.9770000000E+08     0.1000000000E+03
         0.9780000000E+08     0.1000000000E+03
         0.9790000000E+08     0.1000000000E+03
         0.9800000000E+08     0.1000000000E+03
         0.9810000000E+08     0.1000000000E+03
         0.9810000000E+08     0.1000000000E+03
         0.9820000000E+08     0.1000000000E+03
         0.9830000000E+08     0.1000000000E+03
         0.9840000000E+08     0.1000000000E+03
         0.9850000000E+08     0.1000000000E+03
         0.9860000000E+08     0.1000000000E+03
         0.9870000000E+08     0.1000000000E+03
         0.9880000000E+08     0.1000000000E+03
         0.9890000000E+08     0.1000000000E+03
         0.9900000000E+08     0.1000000000E+03
         0.9910000000E+08     0.1000000000E+03
         0.9910000000E+08     0.1000000000E+03
         0.9920000000E+08     0.1000000000E+03
         0.9930000000E+08     0.1000000000E+03
         0.9940000000E+08     0.1000000000E+03
         0.9950000000E+08     0.1000000000E+03
         0.9960000000E+08     0.1000000000E+03
         0.9970000000E+08     0.1000000000E+03
         0.9970000000E+08     0.1000000000E+03
         0.9980000000E+08     0.1000000000E+03
         0.9990000000E+08     0.1000000000E+03
         0.1000000000E+09     0.1000000000E+03
         0.1001000000E+09     0.1000000000E+03
         0.1002000000E+09     0.1000000000E+03
         0.1003000000E+09     0.1000000000E+03
         0.1003000000E+09     0.1000000000E+03
         0.1004000000E+09     0.1000000000E+03
         0.1005000000E+09     0.1000000000E+03
         0.1006000000E+09     0.1000000000E+03
         0.1007000000E+09     0.1000000000E+03
         0.1008000000E+09     0.1000000000E+03
         0.1009000000E+09     0.1000000000E+03
         0.1010000000E+09     0.1000000000E+03
         0.1011000000E+09     0.1000000000E+03
         0.1012000000E+09     0.1000000000E+03
         0.1013000000E+09     0.1000000000E+03
         0.1013000000E+09     0.1000000000E+03
         0.1014000000E+09     0.1000000000E+03
         0.1015000000E+09     0.1000000000E+03
         0.1016000000E+09     0.1000000000E+03
         0.1017000000E+09     0.1000000000E+03
         0.1018000000E+09     0.1000000000E+03
         0.1019000000E+09     0.1000000000E+03
         0.1019000000E+09     0.1000000000E+03
         0.1020000000E+09     0.1000000000E+03
         0.1021000000E+09     0.1000000000E+03
         0.1022000000E+09     0.1000000000E+03
         0.1023000000E+09     0.1000000000E+03
         0.1024000000E+09     0.1000000000E+03
         0.1025000000E+09     0.1000000000E+03
         0.1025000000E+09     0.1000000000E+03
         0.1026000000E+09     0.1000000000E+03
         0.1027000000E+09     0.1000000000E+03
         0.1028000000E+09     0.1000000000E+03
         0.1029000000E+09     0.1000000000E+03
         0.1030000000E+09     0.1000000000E+03
         0.1031000000E+09     0.1000000000E+03
         0.1032000000E+09     0.1000000000E+03
         0.1033000000E+09     0.1000000000E+03
         0.1034000000E+09     0.1000000000E+03
         0.1035000000E+09     0.1000000000E+03
         0.1035000000E+09     0.1000000000E+03
         0.1036000000E+09     0.1000000000E+03
         0.1037000000E+09     0.1000000000E+03
         0.1038000000E+09     0.1000000000E+03
         0.1039000000E+09     0.1000000000E+03
         0.1040000000E+09     0.1000000000E+03
         0.1041000000E+09     0.1000000000E+03
         0.1041000000E+09     0.1000000000E+03
         0.1042000000E+09     0.1000000000E+03
         0.1043000000E+09     0.1000000000E+03
         0.1044000000E+09     0.1000000000E+03
         0.1045000000E+09     0.1000000000E+03
         0.1046000000E+09     0.1000000000E+03
         0.1047000000E+09     0.1000000000E+03
         0.1047000000E+09     0.1000000000E+03
         0.1048000000E+09     0.1000000000E+03
         0.1049000000E+09     0.1000000000E+03
         0.1050000000E+09     0.1000000000E+03
         0.1051000000E+09     0.1000000000E+03
         0.1052000000E+09     0.1000000000E+03
         0.1053000000E+09     0.1000000000E+03
         0.1054000000E+09     0.1000000000E+03
         0.1055000000E+09     0.1000000000E+03
         0.1056000000E+09     0.1000000000E+03
         0.1057000000E+09     0.1000000000E+03
         0.1057000000E+09     0.1000000000E+03
         0.1058000000E+09     0.1000000000E+03
         0.1059000000E+09     0.1000000000E+03
         0.1060000000E+09     0.1000000000E+03
         0.1061000000E+09     0.1000000000E+03
         0.1062000000E+09     0.1000000000E+03
         0.1063000000E+09     0.1000000000E+03
         0.1063000000E+09     0.1000000000E+03
         0.1064000000E+09     0.1000000000E+03
         0.1065000000E+09     0.1000000000E+03
         0.1066000000E+09     0.1000000000E+03
         0.1067000000E+09     0.1000000000E+03
         0.1068000000E+09     0.1000000000E+03
         0.1069000000E+09     0.1000000000E+03
         0.1069000000E+09     0.1000000000E+03
         0.1070000000E+09     0.1000000000E+03
         0.1071000000E+09     0.1000000000E+03
         0.1072000000E+09     0.1000000000E+03
         0.1073000000E+09     0.1000000000E+03
         0.1074000000E+09     0.1000000000E+03
         0.1075000000E+09     0.1000000000E+03
         0.1076000000E+09     0.1000000000E+03
         0.1077000000E+09     0.1000000000E+03
         0.1078000000E+09     0.1000000000E+03
         0.1079000000E+09     0.1000000000E+03
         0.1079000000E+09     0.1000000000E+03
         0.1080000000E+09     0.1000000000E+03
         0.1081000000E+09     0.1000000000E+03
         0.1082000000E+09     0.1000000000E+03
         0.1083000000E+09     0.1000000000E+03
         0.1084000000E+09     0.1000000000E+03
         0.1085000000E+09     0.1000000000E+03
         0.1085000000E+09     0.1000000000E+03
         0.1086000000E+09     0.1000000000E+03
         0.1087000000E+09     0.1000000000E+03
         0.1088000000E+09     0.1000000000E+03
         0.1089000000E+09     0.1000000000E+03
         0.1090000000E+09     0.1000000000E+03
         0.1091000000E+09     0.1000000000E+03
         0.1091000000E+09     0.1000000000E+03
         0.1092000000E+09     0.1000000000E+03
         0.1093000000E+09     0.1000000000E+03
         0.1094000000E+09     0.1000000000E+03
         0.1095000000E+09     0.1000000000E+03
         0.1096000000E+09     0.1000000000E+03
         0.1097000000E+09     0.1000000000E+03
         0.1098000000E+09     0.1000000000E+03
         0.1099000000E+09     0.1000000000E+03
         0.1100000000E+09     0.1000000000E+03
         0.1101000000E+09     0.1000000000E+03
         0.1101000000E+09     0.1000000000E+03
         0.1102000000E+09     0.1000000000E+03
         0.1103000000E+09     0.1000000000E+03
         0.1104000000E+09     0.1000000000E+03
         0.1105000000E+09     0.1000000000E+03
         0.1106000000E+09     0.1000000000E+03
         0.1107000000E+09     0.1000000000E+03
         0.1107000000E+09     0.1000000000E+03
         0.1108000000E+09     0.1000000000E+03
         0.1109000000E+09     0.1000000000E+03
         0.1110000000E+09     0.1000000000E+03
         0.1111000000E+09     0.1000000000E+03
         0.1112000000E+09     0.1000000000E+03
         0.1113000000E+09     0.1000000000E+03
         0.1113000000E+09     0.1000000000E+03
         0.1114000000E+09     0.1000000000E+03
         0.1115000000E+09     0.1000000000E+03
         0.1116000000E+09     0.1000000000E+03
         0.1117000000E+09     0.1000000000E+03
         0.1118000000E+09     0.1000000000E+03
         0.1119000000E+09     0.1000000000E+03
         0.1120000000E+09     0.1000000000E+03
         0.1121000000E+09     0.1000000000E+03
         0.1122000000E+09     0.1000000000E+03
         0.1123000000E+09     0.1000000000E+03
         0.1123000000E+09     0.1000000000E+03
         0.1124000000E+09     0.1000000000E+03
         0.1125000000E+09     0.1000000000E+03
         0.1126000000E+09     0.1000000000E+03
         0.1127000000E+09     0.1000000000E+03
         0.1128000000E+09     0.1000000000E+03
         0.1129000000E+09     0.1000000000E+03
         0.1129000000E+09     0.1000000000E+03
         0.1130000000E+09     0.1000000000E+03
         0.1131000000E+09     0.1000000000E+03
         0.1132000000E+09     0.1000000000E+03
         0.1133000000E+09     0.1000000000E+03
         0.1134000000E+09     0.1000000000E+03
         0.1135000000E+09     0.1000000000E+03
         0.1135000000E+09     0.1000000000E+03
         0.1136000000E+09     0.1000000000E+03
         0.1137000000E+09     0.1000000000E+03
         0.1138000000E+09     0.1000000000E+03
         0.1139000000E+09     0.1000000000E+03
         0.1140000000E+09     0.1000000000E+03
         0.1141000000E+09     0.1000000000E+03
         0.1142000000E+09     0.1000000000E+03
         0.1143000000E+09     0.1000000000E+03
         0.1144000000E+09     0.1000000000E+03
         0.1145000000E+09     0.1000000000E+03
         0.1145000000E+09     0.1000000000E+03
         0.1146000000E+09     0.1000000000E+03
         0.1147000000E+09     0.1000000000E+03
         0.1148000000E+09     0.1000000000E+03
         0.1149000000E+09     0.1000000000E+03
         0.1150000000E+09     0.1000000000E+03
         0.1151000000E+09     0.1000000000E+03
         0.1151000000E+09     0.1000000000E+03
         0.1152000000E+09     0.1000000000E+03
         0.1153000000E+09     0.1000000000E+03
         0.1154000000E+09     0.1000000000E+03
         0.1155000000E+09     0.1000000000E+03
         0.1156000000E+09     0.1000000000E+03
         0.1157000000E+09     0.1000000000E+03
         0.1157000000E+09     0.1000000000E+03
         0.1158000000E+09     0.1000000000E+03
         0.1159000000E+09     0.1000000000E+03
         0.1160000000E+09     0.1000000000E+03
         0.1161000000E+09     0.1000000000E+03
         0.1162000000E+09     0.1000000000E+03
         0.1163000000E+09     0.1000000000E+03
         0.1164000000E+09     0.1000000000E+03
         0.1165000000E+09     0.1000000000E+03
         0.1166000000E+09     0.1000000000E+03
         0.1167000000E+09     0.1000000000E+03
         0.1167000000E+09     0.1000000000E+03
         0.1168000000E+09     0.1000000000E+03
         0.1169000000E+09     0.1000000000E+03
         0.1170000000E+09     0.1000000000E+03
         0.1171000000E+09     0.1000000000E+03
         0.1172000000E+09     0.1000000000E+03
         0.1173000000E+09     0.1000000000E+03
         0.1173000000E+09     0.1000000000E+03
         0.1174000000E+09     0.1000000000E+03
         0.1175000000E+09     0.1000000000E+03
         0.1176000000E+09     0.1000000000E+03
         0.1177000000E+09     0.1000000000E+03
         0.1178000000E+09     0.1000000000E+03
         0.1179000000E+09     0.1000000000E+03
         0.1179000000E+09     0.1000000000E+03
         0.1180000000E+09     0.1000000000E+03
         0.1181000000E+09     0.1000000000E+03
         0.1182000000E+09     0.1000000000E+03
         0.1183000000E+09     0.1000000000E+03
         0.1184000000E+09     0.1000000000E+03
         0.1185000000E+09     0.1000000000E+03
         0.1186000000E+09     0.1000000000E+03
         0.1187000000E+09     0.1000000000E+03
         0.1188000000E+09     0.1000000000E+03
         0.1189000000E+09     0.1000000000E+03
         0.1189000000E+09     0.1000000000E+03
         0.1190000000E+09     0.1000000000E+03
         0.1191000000E+09     0.1000000000E+03
         0.1192000000E+09     0.1000000000E+03
         0.1193000000E+09     0.1000000000E+03
         0.1194000000E+09     0.1000000000E+03
         0.1195000000E+09     0.1000000000E+03
         0.1195000000E+09     0.1000000000E+03
         0.1196000000E+09     0.1000000000E+03
         0.1197000000E+09     0.1000000000E+03
         0.1198000000E+09     0.1000000000E+03
         0.1199000000E+09     0.1000000000E+03
         0.1200000000E+09     0.1000000000E+03
         0.1201000000E+09     0.1000000000E+03
         0.1201000000E+09     0.1000000000E+03
         0.1202000000E+09     0.1000000000E+03
         0.1203000000E+09     0.1000000000E+03
         0.1204000000E+09     0.1000000000E+03
         0.1205000000E+09     0.1000000000E+03
         0.1206000000E+09     0.1000000000E+03
         0.1207000000E+09     0.1000000000E+03
         0.1208000000E+09     0.1000000000E+03
         0.1209000000E+09     0.1000000000E+03
         0.1210000000E+09     0.1000000000E+03
         0.1211000000E+09     0.1000000000E+03
         0.1211000000E+09     0.1000000000E+03
         0.1212000000E+09     0.1000000000E+03
         0.1213000000E+09     0.1000000000E+03
         0.1214000000E+09     0.1000000000E+03
         0.1215000000E+09     0.1000000000E+03
         0.1216000000E+09     0.1000000000E+03
         0.1217000000E+09     0.1000000000E+03
         0.1217000000E+09     0.1000000000E+03
         0.1218000000E+09     0.1000000000E+03
         0.1219000000E+09     0.1000000000E+03
         0.1220000000E+09     0.1000000000E+03
         0.1221000000E+09     0.1000000000E+03
         0.1222000000E+09     0.1000000000E+03
         0.1223000000E+09     0.1000000000E+03
         0.1223000000E+09     0.1000000000E+03
         0.1224000000E+09     0.1000000000E+03
         0.1225000000E+09     0.1000000000E+03
         0.1226000000E+09     0.1000000000E+03
         0.1227000000E+09     0.1000000000E+03
         0.1228000000E+09     0.1000000000E+03
         0.1229000000E+09     0.1000000000E+03
         0.1230000000E+09     0.1000000000E+03
         0.1231000000E+09     0.1000000000E+03
         0.1232000000E+09     0.1000000000E+03
         0.1233000000E+09     0.1000000000E+03
         0.1233000000E+09     0.1000000000E+03
         0.1234000000E+09     0.1000000000E+03
         0.1235000000E+09     0.1000000000E+03
         0.1236000000E+09     0.1000000000E+03
         0.1237000000E+09     0.1000000000E+03
         0.1238000000E+09     0.1000000000E+03
         0.1239000000E+09     0.1000000000E+03
         0.1239000000E+09     0.1000000000E+03
         0.1240000000E+09     0.1000000000E+03
         0.1241000000E+09     0.1000000000E+03
         0.1242000000E+09     0.1000000000E+03
         0.1243000000E+09     0.1000000000E+03
         0.1244000000E+09     0.1000000000E+03
         0.1245000000E+09     0.1000000000E+03
         0.1245000000E+09     0.1000000000E+03
         0.1246000000E+09     0.1000000000E+03
         0.1247000000E+09     0.1000000000E+03
         0.1248000000E+09     0.1000000000E+03
         0.1249000000E+09     0.1000000000E+03
         0.1250000000E+09     0.1000000000E+03
         0.1251000000E+09     0.1000000000E+03
         0.1252000000E+09     0.1000000000E+03
         0.1253000000E+09     0.1000000000E+03
         0.1254000000E+09     0.1000000000E+03
         0.1255000000E+09     0.1000000000E+03
         0.1255000000E+09     0.1000000000E+03
         0.1256000000E+09     0.1000000000E+03
         0.1257000000E+09     0.1000000000E+03
         0.1258000000E+09     0.1000000000E+03
         0.1259000000E+09     0.1000000000E+03
         0.1260000000E+09     0.1000000000E+03



            AREAL INFILTRATION RATE
 READING ON UNIT   19 WITH FORMAT: (10F4.0)            

            1           2           3           4           5           6           7           8           9          10
 ........................................................................................................................
   1   1.0000E-10  2.0000E-10   0.000       0.000       0.000       0.000       0.000       0.000       0.000       0.000    
   2   2.0000E-10  1.0000E-10  2.0000E-10   0.000       0.000      8.0000E-10  8.0000E-10  5.0000E-10   0.000       0.000    
   3    0.000      5.0000E-10  1.0000E-10  1.0000E-10  8.0000E-10  8.0000E-10  5.0000E-10  5.0000E-10   0.000       0.000    
   4   8.0000E-10  5.0000E-10  1.0000E-10  1.0000E-10  1.0000E-10  1.0000E-10  1.0000E-10  1.0000E-10  2.0000E-10   0.000    
   5   8.0000E-10  5.0000E-10  1.0000E-10  1.0000E-10  1.0000E-10  1.0000E-10  1.0000E-10  1.0000E-10  1.0000E-10  1.0000E-10
   6   8.0000E-10  5.0000E-10  5.0000E-10  2.0000E-10  2.0000E-10  1.0000E-10  1.0000E-10  1.0000E-10  1.0000E-10  5.0000E-10
   7   8.0000E-10  5.0000E-10  5.0000E-10  2.0000E-10  2.0000E-10  1.0000E-10  1.0000E-10  2.0000E-10  2.0000E-10   0.000    
   8    0.000      5.0000E-10  5.0000E-10  2.0000E-10  2.0000E-10  1.0000E-10  1.0000E-10  2.0000E-10  5.0000E-10   0.000    
   9    0.000      5.0000E-10  5.0000E-10  2.0000E-10  2.0000E-10  1.0000E-10  1.0000E-10  2.0000E-10  5.0000E-10   0.000    
  10    0.000      5.0000E-10  5.0000E-10  2.0000E-10  2.0000E-10  1.0000E-10  1.0000E-10  2.0000E-10  5.0000E-10  8.0000E-10
  11    0.000      1.0000E-10  1.0000E-10  1.0000E-10  1.0000E-10  1.0000E-10  1.0000E-10  2.0000E-10  5.0000E-10   0.000    
  12   1.0000E-10  1.0000E-10  1.0000E-10  1.0000E-10  1.0000E-10  1.0000E-10  1.0000E-10  1.0000E-10  2.0000E-10   0.000    
  13   1.0000E-10  1.0000E-10  2.0000E-10  2.0000E-10  2.0000E-10  2.0000E-10  2.0000E-10  1.0000E-10  1.0000E-10   0.000    
  14    0.000      2.0000E-10  5.0000E-10  5.0000E-10  5.0000E-10  5.0000E-10  5.0000E-10  2.0000E-10  1.0000E-10   0.000    
  15    0.000       0.000      8.0000E-10  8.0000E-10  8.0000E-10  8.0000E-10   0.000       0.000       0.000       0.000    

                  ET RATE =  1.000000E-08

      ET EXTINCTION DEPTH =  0.500000    

 EXTINCTION WATER CONTENT =  0.200000    

EXTINCTION WATER CONTENT FOR CELL AT ROW     1, COLUMN     1 IS LESS THAN RESIDUAL WATER CONTENT-- SETTING EXTINCTION WATER CONTENT EQUAL TO RESIDUAL WATER CONTENT

EXTINCTION WATER CONTENT FOR CELL AT ROW     1, COLUMN     2 IS LESS THAN RESIDUAL WATER CONTENT-- SETTING EXTINCTION WATER CONTENT EQUAL TO RESIDUAL WATER CONTENT

EXTINCTION WATER CONTENT FOR CELL AT ROW     2, COLUMN     1 IS LESS THAN RESIDUAL WATER CONTENT-- SETTING EXTINCTION WATER CONTENT EQUAL TO RESIDUAL WATER CONTENT

EXTINCTION WATER CONTENT FOR CELL AT ROW     2, COLUMN     2 IS LESS THAN RESIDUAL WATER CONTENT-- SETTING EXTINCTION WATER CONTENT EQUAL TO RESIDUAL WATER CONTENT

EXTINCTION WATER CONTENT FOR CELL AT ROW     2, COLUMN     3 IS LESS THAN RESIDUAL WATER CONTENT-- SETTING EXTINCTION WATER CONTENT EQUAL TO RESIDUAL WATER CONTENT

EXTINCTION WATER CONTENT FOR CELL AT ROW     2, COLUMN     6 IS LESS THAN RESIDUAL WATER CONTENT-- SETTING EXTINCTION WATER CONTENT EQUAL TO RESIDUAL WATER CONTENT

EXTINCTION WATER CONTENT FOR CELL AT ROW     2, COLUMN     7 IS LESS THAN RESIDUAL WATER CONTENT-- SETTING EXTINCTION WATER CONTENT EQUAL TO RESIDUAL WATER CONTENT

EXTINCTION WATER CONTENT FOR CELL AT ROW     2, COLUMN     8 IS LESS THAN RESIDUAL WATER CONTENT-- SETTING EXTINCTION WATER CONTENT EQUAL TO RESIDUAL WATER CONTENT

EXTINCTION WATER CONTENT FOR CELL AT ROW     3, COLUMN     2 IS LESS THAN RESIDUAL WATER CONTENT-- SETTING EXTINCTION WATER CONTENT EQUAL TO RESIDUAL WATER CONTENT

EXTINCTION WATER CONTENT FOR CELL AT ROW     3, COLUMN     3 IS LESS THAN RESIDUAL WATER CONTENT-- SETTING EXTINCTION WATER CONTENT EQUAL TO RESIDUAL WATER CONTENT

EXTINCTION WATER CONTENT FOR CELL AT ROW     3, COLUMN     4 IS LESS THAN RESIDUAL WATER CONTENT-- SETTING EXTINCTION WATER CONTENT EQUAL TO RESIDUAL WATER CONTENT

EXTINCTION WATER CONTENT FOR CELL AT ROW     3, COLUMN     5 IS LESS THAN RESIDUAL WATER CONTENT-- SETTING EXTINCTION WATER CONTENT EQUAL TO RESIDUAL WATER CONTENT

EXTINCTION WATER CONTENT FOR CELL AT ROW     3, COLUMN     6 IS LESS THAN RESIDUAL WATER CONTENT-- SETTING EXTINCTION WATER CONTENT EQUAL TO RESIDUAL WATER CONTENT

EXTINCTION WATER CONTENT FOR CELL AT ROW     3, COLUMN     7 IS LESS THAN RESIDUAL WATER CONTENT-- SETTING EXTINCTION WATER CONTENT EQUAL TO RESIDUAL WATER CONTENT

EXTINCTION WATER CONTENT FOR CELL AT ROW     3, COLUMN     8 IS LESS THAN RESIDUAL WATER CONTENT-- SETTING EXTINCTION WATER CONTENT EQUAL TO RESIDUAL WATER CONTENT

EXTINCTION WATER CONTENT FOR CELL AT ROW     4, COLUMN     1 IS LESS THAN RESIDUAL WATER CONTENT-- SETTING EXTINCTION WATER CONTENT EQUAL TO RESIDUAL WATER CONTENT

EXTINCTION WATER CONTENT FOR CELL AT ROW     4, COLUMN     2 IS LESS THAN RESIDUAL WATER CONTENT-- SETTING EXTINCTION WATER CONTENT EQUAL TO RESIDUAL WATER CONTENT

EXTINCTION WATER CONTENT FOR CELL AT ROW     4, COLUMN     3 IS LESS THAN RESIDUAL WATER CONTENT-- SETTING EXTINCTION WATER CONTENT EQUAL TO RESIDUAL WATER CONTENT

EXTINCTION WATER CONTENT FOR CELL AT ROW     4, COLUMN     4 IS LESS THAN RESIDUAL WATER CONTENT-- SETTING EXTINCTION WATER CONTENT EQUAL TO RESIDUAL WATER CONTENT

EXTINCTION WATER CONTENT FOR CELL AT ROW     4, COLUMN     5 IS LESS THAN RESIDUAL WATER CONTENT-- SETTING EXTINCTION WATER CONTENT EQUAL TO RESIDUAL WATER CONTENT

EXTINCTION WATER CONTENT FOR CELL AT ROW     4, COLUMN     6 IS LESS THAN RESIDUAL WATER CONTENT-- SETTING EXTINCTION WATER CONTENT EQUAL TO RESIDUAL WATER CONTENT

EXTINCTION WATER CONTENT FOR CELL AT ROW     4, COLUMN     7 IS LESS THAN RESIDUAL WATER CONTENT-- SETTING EXTINCTION WATER CONTENT EQUAL TO RESIDUAL WATER CONTENT

EXTINCTION WATER CONTENT FOR CELL AT ROW     4, COLUMN     8 IS LESS THAN RESIDUAL WATER CONTENT-- SETTING EXTINCTION WATER CONTENT EQUAL TO RESIDUAL WATER CONTENT

EXTINCTION WATER CONTENT FOR CELL AT ROW     4, COLUMN     9 IS LESS THAN RESIDUAL WATER CONTENT-- SETTING EXTINCTION WATER CONTENT EQUAL TO RESIDUAL WATER CONTENT

EXTINCTION WATER CONTENT FOR CELL AT ROW     5, COLUMN     1 IS LESS THAN RESIDUAL WATER CONTENT-- SETTING EXTINCTION WATER CONTENT EQUAL TO RESIDUAL WATER CONTENT

EXTINCTION WATER CONTENT FOR CELL AT ROW     5, COLUMN     2 IS LESS THAN RESIDUAL WATER CONTENT-- SETTING EXTINCTION WATER CONTENT EQUAL TO RESIDUAL WATER CONTENT

EXTINCTION WATER CONTENT FOR CELL AT ROW     5, COLUMN     3 IS LESS THAN RESIDUAL WATER CONTENT-- SETTING EXTINCTION WATER CONTENT EQUAL TO RESIDUAL WATER CONTENT

EXTINCTION WATER CONTENT FOR CELL AT ROW     5, COLUMN     4 IS LESS THAN RESIDUAL WATER CONTENT-- SETTING EXTINCTION WATER CONTENT EQUAL TO RESIDUAL WATER CONTENT

EXTINCTION WATER CONTENT FOR CELL AT ROW     5, COLUMN     5 IS LESS THAN RESIDUAL WATER CONTENT-- SETTING EXTINCTION WATER CONTENT EQUAL TO RESIDUAL WATER CONTENT

EXTINCTION WATER CONTENT FOR CELL AT ROW     5, COLUMN     6 IS LESS THAN RESIDUAL WATER CONTENT-- SETTING EXTINCTION WATER CONTENT EQUAL TO RESIDUAL WATER CONTENT

EXTINCTION WATER CONTENT FOR CELL AT ROW     5, COLUMN     7 IS LESS THAN RESIDUAL WATER CONTENT-- SETTING EXTINCTION WATER CONTENT EQUAL TO RESIDUAL WATER CONTENT

EXTINCTION WATER CONTENT FOR CELL AT ROW     5, COLUMN     8 IS LESS THAN RESIDUAL WATER CONTENT-- SETTING EXTINCTION WATER CONTENT EQUAL TO RESIDUAL WATER CONTENT

EXTINCTION WATER CONTENT FOR CELL AT ROW     5, COLUMN     9 IS LESS THAN RESIDUAL WATER CONTENT-- SETTING EXTINCTION WATER CONTENT EQUAL TO RESIDUAL WATER CONTENT

EXTINCTION WATER CONTENT FOR CELL AT ROW     5, COLUMN    10 IS LESS THAN RESIDUAL WATER CONTENT-- SETTING EXTINCTION WATER CONTENT EQUAL TO RESIDUAL WATER CONTENT

EXTINCTION WATER CONTENT FOR CELL AT ROW     6, COLUMN     1 IS LESS THAN RESIDUAL WATER CONTENT-- SETTING EXTINCTION WATER CONTENT EQUAL TO RESIDUAL WATER CONTENT

EXTINCTION WATER CONTENT FOR CELL AT ROW     6, COLUMN     2 IS LESS THAN RESIDUAL WATER CONTENT-- SETTING EXTINCTION WATER CONTENT EQUAL TO RESIDUAL WATER CONTENT

EXTINCTION WATER CONTENT FOR CELL AT ROW     6, COLUMN     3 IS LESS THAN RESIDUAL WATER CONTENT-- SETTING EXTINCTION WATER CONTENT EQUAL TO RESIDUAL WATER CONTENT

EXTINCTION WATER CONTENT FOR CELL AT ROW     6, COLUMN     4 IS LESS THAN RESIDUAL WATER CONTENT-- SETTING EXTINCTION WATER CONTENT EQUAL TO RESIDUAL WATER CONTENT

EXTINCTION WATER CONTENT FOR CELL AT ROW     6, COLUMN     5 IS LESS THAN RESIDUAL WATER CONTENT-- SETTING EXTINCTION WATER CONTENT EQUAL TO RESIDUAL WATER CONTENT

EXTINCTION WATER CONTENT FOR CELL AT ROW     6, COLUMN     6 IS LESS THAN RESIDUAL WATER CONTENT-- SETTING EXTINCTION WATER CONTENT EQUAL TO RESIDUAL WATER CONTENT

EXTINCTION WATER CONTENT FOR CELL AT ROW     6, COLUMN     7 IS LESS THAN RESIDUAL WATER CONTENT-- SETTING EXTINCTION WATER CONTENT EQUAL TO RESIDUAL WATER CONTENT

EXTINCTION WATER CONTENT FOR CELL AT ROW     6, COLUMN     8 IS LESS THAN RESIDUAL WATER CONTENT-- SETTING EXTINCTION WATER CONTENT EQUAL TO RESIDUAL WATER CONTENT

EXTINCTION WATER CONTENT FOR CELL AT ROW     6, COLUMN     9 IS LESS THAN RESIDUAL WATER CONTENT-- SETTING EXTINCTION WATER CONTENT EQUAL TO RESIDUAL WATER CONTENT

EXTINCTION WATER CONTENT FOR CELL AT ROW     6, COLUMN    10 IS LESS THAN RESIDUAL WATER CONTENT-- SETTING EXTINCTION WATER CONTENT EQUAL TO RESIDUAL WATER CONTENT

EXTINCTION WATER CONTENT FOR CELL AT ROW     7, COLUMN     1 IS LESS THAN RESIDUAL WATER CONTENT-- SETTING EXTINCTION WATER CONTENT EQUAL TO RESIDUAL WATER CONTENT

EXTINCTION WATER CONTENT FOR CELL AT ROW     7, COLUMN     2 IS LESS THAN RESIDUAL WATER CONTENT-- SETTING EXTINCTION WATER CONTENT EQUAL TO RESIDUAL WATER CONTENT

EXTINCTION WATER CONTENT FOR CELL AT ROW     7, COLUMN     3 IS LESS THAN RESIDUAL WATER CONTENT-- SETTING EXTINCTION WATER CONTENT EQUAL TO RESIDUAL WATER CONTENT

EXTINCTION WATER CONTENT FOR CELL AT ROW     7, COLUMN     4 IS LESS THAN RESIDUAL WATER CONTENT-- SETTING EXTINCTION WATER CONTENT EQUAL TO RESIDUAL WATER CONTENT

EXTINCTION WATER CONTENT FOR CELL AT ROW     7, COLUMN     5 IS LESS THAN RESIDUAL WATER CONTENT-- SETTING EXTINCTION WATER CONTENT EQUAL TO RESIDUAL WATER CONTENT

EXTINCTION WATER CONTENT FOR CELL AT ROW     7, COLUMN     6 IS LESS THAN RESIDUAL WATER CONTENT-- SETTING EXTINCTION WATER CONTENT EQUAL TO RESIDUAL WATER CONTENT

EXTINCTION WATER CONTENT FOR CELL AT ROW     7, COLUMN     7 IS LESS THAN RESIDUAL WATER CONTENT-- SETTING EXTINCTION WATER CONTENT EQUAL TO RESIDUAL WATER CONTENT

EXTINCTION WATER CONTENT FOR CELL AT ROW     7, COLUMN     8 IS LESS THAN RESIDUAL WATER CONTENT-- SETTING EXTINCTION WATER CONTENT EQUAL TO RESIDUAL WATER CONTENT

EXTINCTION WATER CONTENT FOR CELL AT ROW     7, COLUMN     9 IS LESS THAN RESIDUAL WATER CONTENT-- SETTING EXTINCTION WATER CONTENT EQUAL TO RESIDUAL WATER CONTENT

EXTINCTION WATER CONTENT FOR CELL AT ROW     8, COLUMN     2 IS LESS THAN RESIDUAL WATER CONTENT-- SETTING EXTINCTION WATER CONTENT EQUAL TO RESIDUAL WATER CONTENT

EXTINCTION WATER CONTENT FOR CELL AT ROW     8, COLUMN     3 IS LESS THAN RESIDUAL WATER CONTENT-- SETTING EXTINCTION WATER CONTENT EQUAL TO RESIDUAL WATER CONTENT

EXTINCTION WATER CONTENT FOR CELL AT ROW     8, COLUMN     4 IS LESS THAN RESIDUAL WATER CONTENT-- SETTING EXTINCTION WATER CONTENT EQUAL TO RESIDUAL WATER CONTENT

EXTINCTION WATER CONTENT FOR CELL AT ROW     8, COLUMN     5 IS LESS THAN RESIDUAL WATER CONTENT-- SETTING EXTINCTION WATER CONTENT EQUAL TO RESIDUAL WATER CONTENT

EXTINCTION WATER CONTENT FOR CELL AT ROW     8, COLUMN     6 IS LESS THAN RESIDUAL WATER CONTENT-- SETTING EXTINCTION WATER CONTENT EQUAL TO RESIDUAL WATER CONTENT

EXTINCTION WATER CONTENT FOR CELL AT ROW     8, COLUMN     7 IS LESS THAN RESIDUAL WATER CONTENT-- SETTING EXTINCTION WATER CONTENT EQUAL TO RESIDUAL WATER CONTENT

EXTINCTION WATER CONTENT FOR CELL AT ROW     8, COLUMN     8 IS LESS THAN RESIDUAL WATER CONTENT-- SETTING EXTINCTION WATER CONTENT EQUAL TO RESIDUAL WATER CONTENT

EXTINCTION WATER CONTENT FOR CELL AT ROW     8, COLUMN     9 IS LESS THAN RESIDUAL WATER CONTENT-- SETTING EXTINCTION WATER CONTENT EQUAL TO RESIDUAL WATER CONTENT

EXTINCTION WATER CONTENT FOR CELL AT ROW     9, COLUMN     2 IS LESS THAN RESIDUAL WATER CONTENT-- SETTING EXTINCTION WATER CONTENT EQUAL TO RESIDUAL WATER CONTENT

EXTINCTION WATER CONTENT FOR CELL AT ROW     9, COLUMN     3 IS LESS THAN RESIDUAL WATER CONTENT-- SETTING EXTINCTION WATER CONTENT EQUAL TO RESIDUAL WATER CONTENT

EXTINCTION WATER CONTENT FOR CELL AT ROW     9, COLUMN     4 IS LESS THAN RESIDUAL WATER CONTENT-- SETTING EXTINCTION WATER CONTENT EQUAL TO RESIDUAL WATER CONTENT

EXTINCTION WATER CONTENT FOR CELL AT ROW     9, COLUMN     5 IS LESS THAN RESIDUAL WATER CONTENT-- SETTING EXTINCTION WATER CONTENT EQUAL TO RESIDUAL WATER CONTENT

EXTINCTION WATER CONTENT FOR CELL AT ROW     9, COLUMN     6 IS LESS THAN RESIDUAL WATER CONTENT-- SETTING EXTINCTION WATER CONTENT EQUAL TO RESIDUAL WATER CONTENT

EXTINCTION WATER CONTENT FOR CELL AT ROW     9, COLUMN     7 IS LESS THAN RESIDUAL WATER CONTENT-- SETTING EXTINCTION WATER CONTENT EQUAL TO RESIDUAL WATER CONTENT

EXTINCTION WATER CONTENT FOR CELL AT ROW     9, COLUMN     8 IS LESS THAN RESIDUAL WATER CONTENT-- SETTING EXTINCTION WATER CONTENT EQUAL TO RESIDUAL WATER CONTENT

EXTINCTION WATER CONTENT FOR CELL AT ROW     9, COLUMN     9 IS LESS THAN RESIDUAL WATER CONTENT-- SETTING EXTINCTION WATER CONTENT EQUAL TO RESIDUAL WATER CONTENT

EXTINCTION WATER CONTENT FOR CELL AT ROW    10, COLUMN     2 IS LESS THAN RESIDUAL WATER CONTENT-- SETTING EXTINCTION WATER CONTENT EQUAL TO RESIDUAL WATER CONTENT

EXTINCTION WATER CONTENT FOR CELL AT ROW    10, COLUMN     3 IS LESS THAN RESIDUAL WATER CONTENT-- SETTING EXTINCTION WATER CONTENT EQUAL TO RESIDUAL WATER CONTENT

EXTINCTION WATER CONTENT FOR CELL AT ROW    10, COLUMN     4 IS LESS THAN RESIDUAL WATER CONTENT-- SETTING EXTINCTION WATER CONTENT EQUAL TO RESIDUAL WATER CONTENT

EXTINCTION WATER CONTENT FOR CELL AT ROW    10, COLUMN     5 IS LESS THAN RESIDUAL WATER CONTENT-- SETTING EXTINCTION WATER CONTENT EQUAL TO RESIDUAL WATER CONTENT

EXTINCTION WATER CONTENT FOR CELL AT ROW    10, COLUMN     6 IS LESS THAN RESIDUAL WATER CONTENT-- SETTING EXTINCTION WATER CONTENT EQUAL TO RESIDUAL WATER CONTENT

EXTINCTION WATER CONTENT FOR CELL AT ROW    10, COLUMN     7 IS LESS THAN RESIDUAL WATER CONTENT-- SETTING EXTINCTION WATER CONTENT EQUAL TO RESIDUAL WATER CONTENT

EXTINCTION WATER CONTENT FOR CELL AT ROW    10, COLUMN     8 IS LESS THAN RESIDUAL WATER CONTENT-- SETTING EXTINCTION WATER CONTENT EQUAL TO RESIDUAL WATER CONTENT

EXTINCTION WATER CONTENT FOR CELL AT ROW    10, COLUMN     9 IS LESS THAN RESIDUAL WATER CONTENT-- SETTING EXTINCTION WATER CONTENT EQUAL TO RESIDUAL WATER CONTENT

EXTINCTION WATER CONTENT FOR CELL AT ROW    10, COLUMN    10 IS LESS THAN RESIDUAL WATER CONTENT-- SETTING EXTINCTION WATER CONTENT EQUAL TO RESIDUAL WATER CONTENT

EXTINCTION WATER CONTENT FOR CELL AT ROW    11, COLUMN     2 IS LESS THAN RESIDUAL WATER CONTENT-- SETTING EXTINCTION WATER CONTENT EQUAL TO RESIDUAL WATER CONTENT

EXTINCTION WATER CONTENT FOR CELL AT ROW    11, COLUMN     3 IS LESS THAN RESIDUAL WATER CONTENT-- SETTING EXTINCTION WATER CONTENT EQUAL TO RESIDUAL WATER CONTENT

EXTINCTION WATER CONTENT FOR CELL AT ROW    11, COLUMN     4 IS LESS THAN RESIDUAL WATER CONTENT-- SETTING EXTINCTION WATER CONTENT EQUAL TO RESIDUAL WATER CONTENT

EXTINCTION WATER CONTENT FOR CELL AT ROW    11, COLUMN     5 IS LESS THAN RESIDUAL WATER CONTENT-- SETTING EXTINCTION WATER CONTENT EQUAL TO RESIDUAL WATER CONTENT

EXTINCTION WATER CONTENT FOR CELL AT ROW    11, COLUMN     6 IS LESS THAN RESIDUAL WATER CONTENT-- SETTING EXTINCTION WATER CONTENT EQUAL TO RESIDUAL WATER CONTENT

EXTINCTION WATER CONTENT FOR CELL AT ROW    11, COLUMN     7 IS LESS THAN RESIDUAL WATER CONTENT-- SETTING EXTINCTION WATER CONTENT EQUAL TO RESIDUAL WATER CONTENT

EXTINCTION WATER CONTENT FOR CELL AT ROW    11, COLUMN     8 IS LESS THAN RESIDUAL WATER CONTENT-- SETTING EXTINCTION WATER CONTENT EQUAL TO RESIDUAL WATER CONTENT

EXTINCTION WATER CONTENT FOR CELL AT ROW    11, COLUMN     9 IS LESS THAN RESIDUAL WATER CONTENT-- SETTING EXTINCTION WATER CONTENT EQUAL TO RESIDUAL WATER CONTENT

EXTINCTION WATER CONTENT FOR CELL AT ROW    12, COLUMN     1 IS LESS THAN RESIDUAL WATER CONTENT-- SETTING EXTINCTION WATER CONTENT EQUAL TO RESIDUAL WATER CONTENT

EXTINCTION WATER CONTENT FOR CELL AT ROW    12, COLUMN     2 IS LESS THAN RESIDUAL WATER CONTENT-- SETTING EXTINCTION WATER CONTENT EQUAL TO RESIDUAL WATER CONTENT

EXTINCTION WATER CONTENT FOR CELL AT ROW    12, COLUMN     3 IS LESS THAN RESIDUAL WATER CONTENT-- SETTING EXTINCTION WATER CONTENT EQUAL TO RESIDUAL WATER CONTENT

EXTINCTION WATER CONTENT FOR CELL AT ROW    12, COLUMN     4 IS LESS THAN RESIDUAL WATER CONTENT-- SETTING EXTINCTION WATER CONTENT EQUAL TO RESIDUAL WATER CONTENT

EXTINCTION WATER CONTENT FOR CELL AT ROW    12, COLUMN     5 IS LESS THAN RESIDUAL WATER CONTENT-- SETTING EXTINCTION WATER CONTENT EQUAL TO RESIDUAL WATER CONTENT

EXTINCTION WATER CONTENT FOR CELL AT ROW    12, COLUMN     6 IS LESS THAN RESIDUAL WATER CONTENT-- SETTING EXTINCTION WATER CONTENT EQUAL TO RESIDUAL WATER CONTENT

EXTINCTION WATER CONTENT FOR CELL AT ROW    12, COLUMN     7 IS LESS THAN RESIDUAL WATER CONTENT-- SETTING EXTINCTION WATER CONTENT EQUAL TO RESIDUAL WATER CONTENT

EXTINCTION WATER CONTENT FOR CELL AT ROW    12, COLUMN     8 IS LESS THAN RESIDUAL WATER CONTENT-- SETTING EXTINCTION WATER CONTENT EQUAL TO RESIDUAL WATER CONTENT

EXTINCTION WATER CONTENT FOR CELL AT ROW    12, COLUMN     9 IS LESS THAN RESIDUAL WATER CONTENT-- SETTING EXTINCTION WATER CONTENT EQUAL TO RESIDUAL WATER CONTENT

EXTINCTION WATER CONTENT FOR CELL AT ROW    13, COLUMN     1 IS LESS THAN RESIDUAL WATER CONTENT-- SETTING EXTINCTION WATER CONTENT EQUAL TO RESIDUAL WATER CONTENT

EXTINCTION WATER CONTENT FOR CELL AT ROW    13, COLUMN     2 IS LESS THAN RESIDUAL WATER CONTENT-- SETTING EXTINCTION WATER CONTENT EQUAL TO RESIDUAL WATER CONTENT

EXTINCTION WATER CONTENT FOR CELL AT ROW    13, COLUMN     3 IS LESS THAN RESIDUAL WATER CONTENT-- SETTING EXTINCTION WATER CONTENT EQUAL TO RESIDUAL WATER CONTENT

EXTINCTION WATER CONTENT FOR CELL AT ROW    13, COLUMN     4 IS LESS THAN RESIDUAL WATER CONTENT-- SETTING EXTINCTION WATER CONTENT EQUAL TO RESIDUAL WATER CONTENT

EXTINCTION WATER CONTENT FOR CELL AT ROW    13, COLUMN     5 IS LESS THAN RESIDUAL WATER CONTENT-- SETTING EXTINCTION WATER CONTENT EQUAL TO RESIDUAL WATER CONTENT

EXTINCTION WATER CONTENT FOR CELL AT ROW    13, COLUMN     6 IS LESS THAN RESIDUAL WATER CONTENT-- SETTING EXTINCTION WATER CONTENT EQUAL TO RESIDUAL WATER CONTENT

EXTINCTION WATER CONTENT FOR CELL AT ROW    13, COLUMN     7 IS LESS THAN RESIDUAL WATER CONTENT-- SETTING EXTINCTION WATER CONTENT EQUAL TO RESIDUAL WATER CONTENT

EXTINCTION WATER CONTENT FOR CELL AT ROW    13, COLUMN     8 IS LESS THAN RESIDUAL WATER CONTENT-- SETTING EXTINCTION WATER CONTENT EQUAL TO RESIDUAL WATER CONTENT

EXTINCTION WATER CONTENT FOR CELL AT ROW    13, COLUMN     9 IS LESS THAN RESIDUAL WATER CONTENT-- SETTING EXTINCTION WATER CONTENT EQUAL TO RESIDUAL WATER CONTENT

EXTINCTION WATER CONTENT FOR CELL AT ROW    14, COLUMN     2 IS LESS THAN RESIDUAL WATER CONTENT-- SETTING EXTINCTION WATER CONTENT EQUAL TO RESIDUAL WATER CONTENT

EXTINCTION WATER CONTENT FOR CELL AT ROW    14, COLUMN     3 IS LESS THAN RESIDUAL WATER CONTENT-- SETTING EXTINCTION WATER CONTENT EQUAL TO RESIDUAL WATER CONTENT

EXTINCTION WATER CONTENT FOR CELL AT ROW    14, COLUMN     4 IS LESS THAN RESIDUAL WATER CONTENT-- SETTING EXTINCTION WATER CONTENT EQUAL TO RESIDUAL WATER CONTENT

EXTINCTION WATER CONTENT FOR CELL AT ROW    14, COLUMN     5 IS LESS THAN RESIDUAL WATER CONTENT-- SETTING EXTINCTION WATER CONTENT EQUAL TO RESIDUAL WATER CONTENT

EXTINCTION WATER CONTENT FOR CELL AT ROW    14, COLUMN     6 IS LESS THAN RESIDUAL WATER CONTENT-- SETTING EXTINCTION WATER CONTENT EQUAL TO RESIDUAL WATER CONTENT

EXTINCTION WATER CONTENT FOR CELL AT ROW    14, COLUMN     7 IS LESS THAN RESIDUAL WATER CONTENT-- SETTING EXTINCTION WATER CONTENT EQUAL TO RESIDUAL WATER CONTENT

EXTINCTION WATER CONTENT FOR CELL AT ROW    14, COLUMN     8 IS LESS THAN RESIDUAL WATER CONTENT-- SETTING EXTINCTION WATER CONTENT EQUAL TO RESIDUAL WATER CONTENT

EXTINCTION WATER CONTENT FOR CELL AT ROW    14, COLUMN     9 IS LESS THAN RESIDUAL WATER CONTENT-- SETTING EXTINCTION WATER CONTENT EQUAL TO RESIDUAL WATER CONTENT

EXTINCTION WATER CONTENT FOR CELL AT ROW    15, COLUMN     3 IS LESS THAN RESIDUAL WATER CONTENT-- SETTING EXTINCTION WATER CONTENT EQUAL TO RESIDUAL WATER CONTENT

EXTINCTION WATER CONTENT FOR CELL AT ROW    15, COLUMN     4 IS LESS THAN RESIDUAL WATER CONTENT-- SETTING EXTINCTION WATER CONTENT EQUAL TO RESIDUAL WATER CONTENT

EXTINCTION WATER CONTENT FOR CELL AT ROW    15, COLUMN     5 IS LESS THAN RESIDUAL WATER CONTENT-- SETTING EXTINCTION WATER CONTENT EQUAL TO RESIDUAL WATER CONTENT

EXTINCTION WATER CONTENT FOR CELL AT ROW    15, COLUMN     6 IS LESS THAN RESIDUAL WATER CONTENT-- SETTING EXTINCTION WATER CONTENT EQUAL TO RESIDUAL WATER CONTENT

       AIR ENTRY PRESSURE =  -1.10000    

            ROOT PRESSURE =  -75.0000    

            ROOT ACTIVITY =   1.00000    
 # AG segment list

 PROCESSING SEGMENT LIST

 FINISHED READING SEGMENT LIST
 # AG well list

 PROCESSING WELL LIST

 LAYER   ROW   COL   MAX STRESS RATE         
 --------------------------------------------
      1      1      6      4      -100.0    
      2      1      6      5      -100.0    
      3      1      7      4      -100.0    
      4      1      7      5      -100.0    
      5      1      8      4      -100.0    
      6      1      8      5      -100.0    

 FINISHED READING WELL LIST

      6 WELLS

 PROCESSING AG STRESS PERIOD DATA
 # AG stress period

 READING AG STRESS PERIOD DATA

 READING IRRIGATION SEGMENT

 READING IRRIGATION WELL

 READING SUPPLEMENTAL WELL

 END PROCESSING AG STRESS PERIOD DATA OPTIONS
 
 SOLVING FOR HEAD 
                                                   Max.-Head-Change                         Max.-Flux-Residual
  Residual-Control   Outer-Iter.   Inner-Iter.     Column Row Layer    Maximum-Head-Change  Column Row Layer    Maximum-Flux-Residual          L2-NORM 
          0                 1           6             2    2     1      -0.3091902064E+02       3    3    1        -0.3387725593E+01      0.9438782865E+01
          0                 2           6             1    1     1      -0.3160283292E+02       1   13    1        -0.6317714402E+02      0.6341706057E+02
          0                 3           5             1    1     1      -0.1218344574E+01       1   13    1        -0.2090503639E+01      0.2852988538E+01
          0                 4           5             5   13     1      -0.3531913407E+00       5   13    1        -0.5902046470E+00      0.6060818052E+00
          0                 5           4             5   14     1       0.5787723920E-01       5   13    1         0.2547336429E-01      0.4765602283E-01
          0                 6           2             5   14     1      -0.2238284060E-02       5   12    1        -0.2373325674E-02      0.3894923016E-02
          0                 7           1             5   12     1       0.4405428811E-04       5   12    1         0.1191611464E-03      0.1657509654E-03

    ------------------------------------------------
       NWT REQUIRED            7 OUTER ITERATIONS 
       AND A TOTAL OF         29 INNER ITERATIONS.
    ------------------------------------------------

 OUTPUT CONTROL FOR STRESS PERIOD    1   TIME STEP    1
    PRINT BUDGET
    PRINT HEAD FOR ALL LAYERS
    SAVE BUDGET
    SAVE HEAD FOR ALL LAYERS
 UBDSV2 SAVING "   CONSTANT HEAD" ON UNIT 102 AT TIME STEP  1, STRESS PERIOD   1
 UBDSV1 SAVING "FLOW RIGHT FACE " ON UNIT 102 AT TIME STEP  1, STRESS PERIOD   1
 UBDSV1 SAVING "FLOW FRONT FACE " ON UNIT 102 AT TIME STEP  1, STRESS PERIOD   1

  HEAD DEP BOUNDS   PERIOD    1   STEP     1
 BOUNDARY      1   LAYER   1   ROW    13   COL     1   RATE   -0.286536    
 BOUNDARY      2   LAYER   1   ROW    14   COL     9   RATE    0.287755    



 STREAM LISTING     PERIOD      1   STEP        1

 LAYER ROW COL. STREAM  RCH.  FLOW INTO     FLOW TO   FLOW OUT OF   OVRLND.     DIRECT     STREAM       STREAM     STREAM     STREAM   STREAMBED  STREAMBED
                SEG.NO.  NO.  STRM. RCH.    AQUIFER    STRM. RCH.    RUNOFF     PRECIP       ET          HEAD       DEPTH      WIDTH   CONDCTNC.   GRADIENT

   1    1    1     1     1    1.8750E+00  6.5285E-02   1.8097E+00  0.000E+00  0.000E+00  0.000E+00  1.09358E+03  5.296E-01  4.110E+00  1.850E-02  1.177E+00
   1    2    2     1     2    1.8097E+00  1.0002E-01   1.7097E+00  0.000E+00  0.000E+00  0.000E+00  1.08858E+03  5.186E-01  4.061E+00  2.843E-02  1.173E+00
   1    3    3     1     3    1.7097E+00  8.4225E-02   1.6255E+00  0.000E+00  0.000E+00  0.000E+00  1.08292E+03  5.059E-01  4.004E+00  2.402E-02  1.169E+00
   1    3    4     1     4    1.6255E+00  7.6652E-02   1.5488E+00  0.000E+00  0.000E+00  0.000E+00  1.07790E+03  4.946E-01  3.952E+00  2.193E-02  1.165E+00
   1    4    5     2     1    0.0000E+00  0.0000E+00   0.0000E+00  0.000E+00  0.000E+00  0.000E+00  1.07193E+03  0.000E+00  1.200E+01  7.800E-02  1.000E+00
   1    5    6     2     2    0.0000E+00  0.0000E+00   0.0000E+00  0.000E+00  0.000E+00  0.000E+00  1.06651E+03  0.000E+00  1.200E+01  6.000E-02  1.000E+00
   1    6    6     2     3    0.0000E+00  0.0000E+00   0.0000E+00  0.000E+00  0.000E+00  0.000E+00  1.06179E+03  0.000E+00  1.200E+01  6.000E-02  1.000E+00
   1    7    6     2     4    0.0000E+00  0.0000E+00   0.0000E+00  0.000E+00  0.000E+00  0.000E+00  1.05708E+03  0.000E+00  1.200E+01  6.000E-02  1.000E+00
   1    8    6     2     5    0.0000E+00  0.0000E+00   0.0000E+00  0.000E+00  0.000E+00  0.000E+00  1.05236E+03  0.000E+00  1.200E+01  6.000E-02  1.000E+00
   1    3    5     3     1    1.5488E+00  2.8252E-01   1.2663E+00  0.000E+00  0.000E+00  0.000E+00  1.07555E+03  1.909E+00  9.636E+00  7.227E-02  1.955E+00
   1    3    6     3     2    1.2663E+00  2.4905E-01   1.0172E+00  0.000E+00  0.000E+00  0.000E+00  1.07264E+03  1.727E+00  8.909E+00  6.682E-02  1.864E+00
   1    3    7     3     3    1.0172E+00  1.9718E-01   8.2007E-01  0.000E+00  0.000E+00  0.000E+00  1.06987E+03  1.555E+00  8.218E+00  5.547E-02  1.777E+00
   1    4    8     3     4    8.2007E-01  2.2567E-01   5.9440E-01  0.000E+00  0.000E+00  0.000E+00  1.06682E+03  1.364E+00  7.455E+00  6.709E-02  1.682E+00
   1    5    8     3     5    5.9440E-01  1.5790E-01   4.3650E-01  0.000E+00  0.000E+00  0.000E+00  1.06362E+03  1.164E+00  6.655E+00  4.991E-02  1.582E+00
   1    6    8     3     6    4.3650E-01  5.5980E-02   3.8052E-01  0.000E+00  0.000E+00  0.000E+00  1.06158E+03  1.036E+00  6.145E+00  1.844E-02  1.518E+00
   1    5   10     4     1    1.0000E+01  9.0919E-02   9.9091E+00  0.000E+00  0.000E+00  0.000E+00  1.07836E+03  6.368E-01  1.000E+01  2.500E-02  1.212E+00
   1    5    9     4     2    9.9091E+00  1.8158E-01   9.7275E+00  0.000E+00  0.000E+00  0.000E+00  1.07154E+03  6.315E-01  1.000E+01  5.000E-02  1.211E+00
   1    6    8     4     3    9.7275E+00  1.2689E-01   9.6006E+00  0.000E+00  0.000E+00  0.000E+00  1.06381E+03  6.256E-01  1.000E+01  3.500E-02  1.209E+00
   1    6    8     5     1    9.9811E+00  2.2027E-01   9.7609E+00  0.000E+00  0.000E+00  0.000E+00  1.05867E+03  6.686E-01  1.501E+01  6.004E-02  1.223E+00
   1    7    7     5     2    9.7609E+00  2.7078E-01   9.4901E+00  0.000E+00  0.000E+00  0.000E+00  1.05416E+03  6.627E-01  1.479E+01  7.393E-02  1.221E+00
   1    8    7     5     3    9.4901E+00  1.8654E-01   9.3035E+00  0.000E+00  0.000E+00  0.000E+00  1.04991E+03  6.571E-01  1.457E+01  5.101E-02  1.219E+00
   1    8    6     5     4    9.3035E+00  1.3175E-01   9.1718E+00  0.000E+00  0.000E+00  0.000E+00  1.04690E+03  6.532E-01  1.443E+01  3.606E-02  1.218E+00
   1    9    6     6     1    9.1718E+00  2.1985E-01   8.9519E+00  0.000E+00  0.000E+00  0.000E+00  1.04339E+03  6.642E-01  1.200E+01  6.000E-02  1.221E+00
   1   10    7     6     2    8.9519E+00  2.1927E-01   8.7327E+00  0.000E+00  0.000E+00  0.000E+00  1.03884E+03  6.545E-01  1.200E+01  6.000E-02  1.218E+00
   1   11    7     6     3    8.7327E+00  2.1868E-01   8.5140E+00  0.000E+00  0.000E+00  0.000E+00  1.03428E+03  6.447E-01  1.200E+01  6.000E-02  1.215E+00
   1   12    7     6     4    8.5140E+00  2.1809E-01   8.2959E+00  0.000E+00  0.000E+00  0.000E+00  1.02973E+03  6.349E-01  1.200E+01  6.000E-02  1.212E+00
   1   13    7     6     5    8.2959E+00 -6.5708E-02   8.3616E+00  0.000E+00  0.000E+00  0.000E+00  1.02654E+03  6.314E-01  1.200E+01  2.400E-01 -9.126E-02
   1   14    9     7     1    1.5000E+02  1.3651E+00   1.4863E+02  0.000E+00  0.000E+00  0.000E+00  1.03987E+03  2.288E+00  5.529E+01  5.593E-01  8.136E-01
   1   13    8     7     2    1.4863E+02  1.9205E+00   1.4671E+02  0.000E+00  0.000E+00  0.000E+00  1.03478E+03  2.279E+00  5.526E+01  6.148E-01  1.041E+00
   1   13    7     7     3    1.4671E+02  1.6052E+00   1.4511E+02  0.000E+00  0.000E+00  0.000E+00  1.02969E+03  2.269E+00  5.521E+01  5.584E-01  9.582E-01
   1   13    6     8     1    1.5347E+02  9.5026E-01   1.5252E+02  0.000E+00  0.000E+00  0.000E+00  1.02471E+03  2.838E+00  4.115E+01  4.193E-01  7.554E-01
   1   13    5     8     2    1.5252E+02  2.1144E-01   1.5231E+02  0.000E+00  0.000E+00  0.000E+00  1.01846E+03  2.834E+00  4.109E+01  4.187E-01  1.683E-01
   1   13    4     8     3    1.5231E+02 -2.3074E+00   1.5462E+02  0.000E+00  0.000E+00  0.000E+00  1.01222E+03  2.841E+00  4.120E+01  4.198E+00 -1.832E-01
   1   13    3     8     4    1.5462E+02 -3.5750E+00   1.5819E+02  0.000E+00  0.000E+00  0.000E+00  1.00599E+03  2.861E+00  4.149E+01  4.228E+00 -2.819E-01
   1   13    2     8     5    1.5819E+02 -2.5597E+00   1.6075E+02  0.000E+00  0.000E+00  0.000E+00  9.99757E+02  2.882E+00  4.179E+01  4.259E+00 -2.003E-01
   1   13    1     8     6    1.6075E+02 -1.9726E+00   1.6272E+02  0.000E+00  0.000E+00  0.000E+00  9.94773E+02  2.898E+00  4.201E+01  2.569E+00 -2.560E-01
   1    8    6     9     1    0.0000E+00  0.0000E+00   0.0000E+00  0.000E+00  0.000E+00  0.000E+00  1.07875E+03  0.000E+00  4.000E+00  0.000E+00  1.000E+00
   1    8    5     9     2    0.0000E+00  0.0000E+00   0.0000E+00  0.000E+00  0.000E+00  0.000E+00  1.07825E+03  0.000E+00  4.000E+00  0.000E+00  1.000E+00



 UBDSV3 SAVING "           GW ET" ON UNIT  61 AT TIME STEP  1, STRESS PERIOD   1
 UBDSV3 SAVING "    UZF RECHARGE" ON UNIT  61 AT TIME STEP  1, STRESS PERIOD   1
 UBDSV3 SAVING " SURFACE LEAKAGE" ON UNIT  61 AT TIME STEP  1, STRESS PERIOD   1
 UBDSV3 SAVING "       HORT+DUNN" ON UNIT  61 AT TIME STEP  1, STRESS PERIOD   1
 UBDSV3 SAVING "  STORAGE CHANGE" ON UNIT  61 AT TIME STEP  1, STRESS PERIOD   1


UNSATURATED ZONE PACKAGE VOLUMETRIC BUDGET FOR  TIME STEP     1 STRESS PERIOD    1
  ------------------------------------------------------------------------------



     CUMULATIVE VOLUMES      L**3       RATES FOR THIS TIME STEP      L**3/T
     ------------------                 ------------------------

           IN:                                      IN:
           ---                                      ---
        INFILTRATION =       73224.0000          INFILTRATION =           0.8475

          OUT:                                     OUT:
          ----                                     ----
              UZF ET =       0.0000E+00                UZF ET =       0.0000E+00
        UZF RECHARGE =       73224.0000          UZF RECHARGE =           0.8475

            IN - OUT =       0.0000E+00              IN - OUT =       0.0000E+00

          STORAGE:                                 STORAGE:
          --------                                 --------
      STORAGE CHANGE =       0.0000E+00        STORAGE CHANGE =       0.0000E+00

 PERCENT DISCREPANCY IS DIFFERENCE BETWEEN IN-OUT MINUS CHANGE IN STORAGE
 DIVIDED BY THE AVERAGE OF IN AND OUT TIMES 100

 PERCENT DISCREPANCY =           0.00     PERCENT DISCREPANCY =           0.00






 

            AG WELLS      PERIOD    1   STEP   1
 AG WELL      1   LAYER   1   ROW     6   COL     4   RATE     0.00000    
 AG WELL      2   LAYER   1   ROW     6   COL     5   RATE     0.00000    
 AG WELL      3   LAYER   1   ROW     7   COL     4   RATE     0.00000    
 AG WELL      4   LAYER   1   ROW     7   COL     5   RATE     0.00000    
 AG WELL      5   LAYER   1   ROW     8   COL     4   RATE     0.00000    
 AG WELL      6   LAYER   1   ROW     8   COL     5   RATE     0.00000    
 
 

   DIVERSION SEGMENTS     PERIOD    1   STEP   1
 
 

        SW IRRIGATION     PERIOD    1   STEP   1
 
 

        GW IRRIGATION     PERIOD    1   STEP   1
 
1
  VOLUMETRIC BUDGET FOR AGRICULTURAL FIELDS AT  END OF TIME STEP    1, STRESS PERIOD   1
  ------------------------------------------------------------------------------

     CUMULATIVE VOLUMES      L**3       RATES FOR THIS TIME STEP      L**3/T
     ------------------                 ------------------------

           IN:                                      IN:
           ---                                      ---
               AG WELLS  =           0.0000                 AG WELLS  =           0.0000
      DIVERSION SEGMENTS =           0.0000        DIVERSION SEGMENTS =           0.0000
           GW IRRIGATION =           0.0000             GW IRRIGATION =           0.0000
           SW IRRIGATION =           0.0000             SW IRRIGATION =           0.0000
        SYSTEM LOSSES GW =           0.0000          SYSTEM LOSSES GW =           0.0000
        SYSTEM LOSSES SW =           0.0000          SYSTEM LOSSES SW =           0.0000

                TOTAL IN =           0.0000                  TOTAL IN =           0.0000

          OUT:                                     OUT:
          ----                                     ----
               AG WELLS  =           0.0000                 AG WELLS  =           0.0000
      DIVERSION SEGMENTS =           0.0000        DIVERSION SEGMENTS =           0.0000
           GW IRRIGATION =           0.0000             GW IRRIGATION =           0.0000
           SW IRRIGATION =           0.0000             SW IRRIGATION =           0.0000
        SYSTEM LOSSES GW =           0.0000          SYSTEM LOSSES GW =           0.0000
        SYSTEM LOSSES SW =           0.0000          SYSTEM LOSSES SW =           0.0000

               TOTAL OUT =           0.0000                 TOTAL OUT =           0.0000

                IN - OUT =           0.0000                  IN - OUT =           0.0000

     PERCENT DISCREPANCY =           0.00         PERCENT DISCREPANCY =           0.00



1
              HEAD IN LAYER   1 AT END OF TIME STEP   1 IN STRESS PERIOD    1
  ---------------------------------------------------------------------------

           1       2       3       4       5       6       7       8       9      10
 ...................................................................................
   1  1029.26 1028.37 6999.00 6999.00 6999.00 6999.00 6999.00 6999.00 6999.00 6999.00
   2  1028.45 1027.36 1026.88 6999.00 6999.00 1028.30 1028.48 1028.46 6999.00 6999.00
   3  6999.00 1026.66 1026.39 1026.21 1026.77 1027.48 1028.04 1028.04 6999.00 6999.00
   4  1026.25 1026.11 1025.89 1025.72 1025.72 1025.86 1026.44 1027.58 1027.34 6999.00
   5  1025.90 1025.50 1025.30 1025.20 1025.26 1025.43 1025.71 1026.26 1026.91 1027.46
   6  1025.46 1024.92 1024.71 1024.66 1024.75 1024.99 1025.37 1025.92 1026.38 1027.29
   7  1025.06 1024.16 1023.99 1024.01 1024.15 1024.46 1024.94 1025.38 1025.92 6999.00
   8  6999.00 1023.02 1023.05 1023.19 1023.40 1023.81 1024.28 1024.92 1025.60 6999.00
   9  6999.00 1021.31 1021.62 1022.06 1022.44 1023.05 1023.57 1024.31 1025.54 6999.00
  10  6999.00 1018.82 1019.57 1020.57 1021.33 1022.32 1023.23 1024.33 1025.99 1026.64
  11  6999.00 1014.68 1016.10 1018.53 1020.11 1021.81 1023.34 1025.18 1027.44 6999.00
  12  1001.77 1007.67 1011.76 1015.60 1018.78 1021.71 1024.22 1027.74 1030.81 6999.00
  13   995.54 1000.36 1006.83 1012.77 1017.95 1022.45 1026.81 1031.65 1034.50 6999.00
  14  6999.00 1005.73 1008.80 1013.40 1018.06 1022.43 1027.39 1032.95 1037.43 6999.00
  15  6999.00 6999.00 1012.40 1015.08 1018.50 1021.48 6999.00 6999.00 6999.00 6999.00

 HEAD WILL BE SAVED ON UNIT   62 AT END OF TIME STEP    1, STRESS PERIOD    1
1
  VOLUMETRIC BUDGET FOR ENTIRE MODEL AT END OF TIME STEP    1, STRESS PERIOD   1
  ------------------------------------------------------------------------------

     CUMULATIVE VOLUMES      L**3       RATES FOR THIS TIME STEP      L**3/T
     ------------------                 ------------------------

           IN:                                      IN:
           ---                                      ---
             STORAGE     =           0.0000               STORAGE     =           0.0000
       CONSTANT HEAD     =           0.0000         CONSTANT HEAD     =           0.0000
     HEAD DEP BOUNDS     =       24862.0605       HEAD DEP BOUNDS     =           0.2878
      STREAM LEAKAGE     =      832172.8125        STREAM LEAKAGE     =           9.6316
        UZF RECHARGE     =       73223.9531          UZF RECHARGE     =           0.8475
               GW ET     =           0.0000                 GW ET     =           0.0000
     SURFACE LEAKAGE     =           0.0000       SURFACE LEAKAGE     =           0.0000
           AG WELLS      =           0.0000             AG WELLS      =           0.0000

                TOTAL IN =      930258.8125                  TOTAL IN =          10.7669

          OUT:                                     OUT:
          ----                                     ----
             STORAGE     =           0.0000               STORAGE     =           0.0000
       CONSTANT HEAD     =           0.0000         CONSTANT HEAD     =           0.0000
     HEAD DEP BOUNDS     =       24756.7500       HEAD DEP BOUNDS     =           0.2865
      STREAM LEAKAGE     =      905501.8750        STREAM LEAKAGE     =          10.4803
        UZF RECHARGE     =           0.0000          UZF RECHARGE     =           0.0000
               GW ET     =           0.0000                 GW ET     =           0.0000
     SURFACE LEAKAGE     =           0.0000       SURFACE LEAKAGE     =           0.0000
           AG WELLS      =           0.0000             AG WELLS      =           0.0000

               TOTAL OUT =      930258.6250                 TOTAL OUT =          10.7669

                IN - OUT =           0.1875                  IN - OUT =       2.8610E-06

     PERCENT DISCREPANCY =           0.00         PERCENT DISCREPANCY =           0.00






         TIME SUMMARY AT END OF TIME STEP    1 IN STRESS PERIOD    1
                    SECONDS     MINUTES      HOURS       DAYS        YEARS
                    -----------------------------------------------------------
   TIME STEP LENGTH  86400.      1440.0      24.000      1.0000     2.73785E-03
 STRESS PERIOD TIME  86400.      1440.0      24.000      1.0000     2.73785E-03
         TOTAL TIME  86400.      1440.0      24.000      1.0000     2.73785E-03
1
1
                            STRESS PERIOD NO.    2, LENGTH =   2630000.    
                            -----------------------------------------------

                              NUMBER OF TIME STEPS =    30

                               MULTIPLIER FOR DELT =     1.000

                            INITIAL TIME STEP SIZE =   87666.66    

 REUSING NON-PARAMETER GHB CELLS FROM LAST STRESS PERIOD

      2 GHB CELLS

 REUSING STREAM SEGMENT DATA FROM LAST STRESS PERIOD



            AREAL INFILTRATION RATE
 READING ON UNIT   19 WITH FORMAT: (FREE)              

            1           2           3           4           5           6           7           8           9          10
 ........................................................................................................................
   1   1.0000E-10  2.0000E-10   0.000       0.000       0.000       0.000       0.000       0.000       0.000       0.000    
   2   2.0000E-10  1.0000E-10  2.0000E-10   0.000       0.000      8.0000E-10  8.0000E-10  5.0000E-10   0.000       0.000    
   3    0.000      5.0000E-10  1.0000E-10  1.0000E-10  8.0000E-10  8.0000E-10  5.0000E-10  5.0000E-10   0.000       0.000    
   4   8.0000E-10  5.0000E-10  1.0000E-10  1.0000E-10  1.0000E-10  1.0000E-10  1.0000E-10  1.0000E-10  2.0000E-10   0.000    
   5   8.0000E-10  5.0000E-10  1.0000E-10  1.0000E-10  1.0000E-10  1.0000E-10  1.0000E-10  1.0000E-10  1.0000E-10  1.0000E-10
   6   8.0000E-10  5.0000E-10  5.0000E-10  2.0000E-10  2.0000E-10  1.0000E-10  1.0000E-10  1.0000E-10  1.0000E-10  5.0000E-10
   7   8.0000E-10  5.0000E-10  5.0000E-10  2.0000E-10  2.0000E-10  1.0000E-10  1.0000E-10  2.0000E-10  2.0000E-10   0.000    
   8    0.000      5.0000E-10  5.0000E-10  2.0000E-10  2.0000E-10  1.0000E-10  1.0000E-10  2.0000E-10  5.0000E-10   0.000    
   9    0.000      5.0000E-10  5.0000E-10  2.0000E-10  2.0000E-10  1.0000E-10  1.0000E-10  2.0000E-10  5.0000E-10   0.000    
  10    0.000      5.0000E-10  5.0000E-10  2.0000E-10  2.0000E-10  1.0000E-10  1.0000E-10  2.0000E-10  5.0000E-10  8.0000E-10
  11    0.000      1.0000E-10  1.0000E-10  1.0000E-10  1.0000E-10  1.0000E-10  1.0000E-10  2.0000E-10  5.0000E-10   0.000    
  12   1.0000E-10  1.0000E-10  1.0000E-10  1.0000E-10  1.0000E-10  1.0000E-10  1.0000E-10  1.0000E-10  2.0000E-10   0.000    
  13   1.0000E-10  1.0000E-10  2.0000E-10  2.0000E-10  2.0000E-10  2.0000E-10  2.0000E-10  1.0000E-10  1.0000E-10   0.000    
  14    0.000      2.0000E-10  5.0000E-10  5.0000E-10  5.0000E-10  5.0000E-10  5.0000E-10  2.0000E-10  1.0000E-10   0.000    
  15    0.000       0.000      8.0000E-10  8.0000E-10  8.0000E-10  8.0000E-10   0.000       0.000       0.000       0.000    

                  ET RATE =  5.000000E-10

 USING ET EXTINCTION DEPTH FROM PREVIOUS STRESS PERIOD. CURRENT PERIOD IS:       2

 USING EXTINCTION WATER CONTENT FROM PREVIOUS STRESS PERIOD. CURRENT PERIOD IS:       2

 USING AIR ENTRY PRESSURE FROM PREVIOUS STRESS PERIOD. CURRENT PERIOD IS:       2

 USING ROOT PRESSURE HEAD FROM PREVIOUS STRESS PERIOD. CURRENT PERIOD IS:       2

 USING ROOT ACTIVITY FROM PREVIOUS STRESS PERIOD. CURRENT PERIOD IS:       2

 PROCESSING AG STRESS PERIOD DATA

 READING AG STRESS PERIOD DATA

 READING IRRIGATION SEGMENT

 READING IRRIGATION WELL

 READING SUPPLEMENTAL WELL

 END PROCESSING AG STRESS PERIOD DATA OPTIONS
 
 SOLVING FOR HEAD 
                                                   Max.-Head-Change                         Max.-Flux-Residual
  Residual-Control   Outer-Iter.   Inner-Iter.     Column Row Layer    Maximum-Head-Change  Column Row Layer    Maximum-Flux-Residual          L2-NORM 
          0                 1           2             5    4     1       0.4971666878E-02       5    4    1         0.2692751490E+00      0.5607047489E+00
          0                 2           2             5    4     1      -0.4836091039E-03       5    4    1        -0.2692761807E-01      0.5590423108E-01
          0                 3           1             5    4     1       0.3293196819E-04       5    4    1         0.1884933108E-02      0.3898620859E-02

    ------------------------------------------------
       NWT REQUIRED            3 OUTER ITERATIONS 
       AND A TOTAL OF          5 INNER ITERATIONS.
    ------------------------------------------------

 OUTPUT CONTROL FOR STRESS PERIOD    2   TIME STEP    1
    PRINT BUDGET
    PRINT HEAD FOR ALL LAYERS
    SAVE BUDGET
 UBDSV1 SAVING "         STORAGE" ON UNIT 102 AT TIME STEP  1, STRESS PERIOD   2
 UBDSV2 SAVING "   CONSTANT HEAD" ON UNIT 102 AT TIME STEP  1, STRESS PERIOD   2
 UBDSV1 SAVING "FLOW RIGHT FACE " ON UNIT 102 AT TIME STEP  1, STRESS PERIOD   2
 UBDSV1 SAVING "FLOW FRONT FACE " ON UNIT 102 AT TIME STEP  1, STRESS PERIOD   2

  HEAD DEP BOUNDS   PERIOD    2   STEP     1
 BOUNDARY      1   LAYER   1   ROW    13   COL     1   RATE   -0.286571    
 BOUNDARY      2   LAYER   1   ROW    14   COL     9   RATE    0.287757    



 STREAM LISTING     PERIOD      2   STEP        1

 LAYER ROW COL. STREAM  RCH.  FLOW INTO     FLOW TO   FLOW OUT OF   OVRLND.     DIRECT     STREAM       STREAM     STREAM     STREAM   STREAMBED  STREAMBED
                SEG.NO.  NO.  STRM. RCH.    AQUIFER    STRM. RCH.    RUNOFF     PRECIP       ET          HEAD       DEPTH      WIDTH   CONDCTNC.   GRADIENT

   1    1    1     1     1    8.2500E+00  1.3178E-01   8.1182E+00  0.000E+00  0.000E+00  0.000E+00  1.09389E+03  8.424E-01  7.622E+00  3.430E-02  1.281E+00
   1    2    2     1     2    8.1182E+00  2.0240E-01   7.9158E+00  0.000E+00  0.000E+00  0.000E+00  1.08890E+03  8.367E-01  7.536E+00  5.276E-02  1.279E+00
   1    3    3     1     3    7.9158E+00  1.7099E-01   7.7448E+00  0.000E+00  0.000E+00  0.000E+00  1.08325E+03  8.302E-01  7.440E+00  4.464E-02  1.277E+00
   1    3    4     1     4    7.7448E+00  1.5612E-01   7.5887E+00  0.000E+00  0.000E+00  0.000E+00  1.07823E+03  8.244E-01  7.355E+00  4.082E-02  1.275E+00
   1    4    5     2     1    5.5887E+00  2.7178E-01   5.3169E+00  0.000E+00  0.000E+00  0.000E+00  1.07242E+03  4.843E-01  1.200E+01  7.800E-02  1.161E+00
   1    5    6     2     2    5.3169E+00  2.0828E-01   5.1086E+00  0.000E+00  0.000E+00  0.000E+00  1.06698E+03  4.714E-01  1.200E+01  6.000E-02  1.157E+00
   1    6    6     2     3    5.1086E+00  2.0760E-01   4.9010E+00  0.000E+00  0.000E+00  0.000E+00  1.06225E+03  4.600E-01  1.200E+01  6.000E-02  1.153E+00
   1    7    6     2     4    4.9010E+00  2.0691E-01   4.6941E+00  0.000E+00  0.000E+00  0.000E+00  1.05752E+03  4.485E-01  1.200E+01  6.000E-02  1.149E+00
   1    8    6     2     5    4.6941E+00  2.0621E-01   4.4879E+00  0.000E+00  0.000E+00  0.000E+00  1.05280E+03  4.368E-01  1.200E+01  6.000E-02  1.146E+00
   1    3    5     3     1    2.0000E+00  2.8252E-01   1.7175E+00  0.000E+00  0.000E+00  0.000E+00  1.07555E+03  1.909E+00  9.636E+00  7.227E-02  1.955E+00
   1    3    6     3     2    1.7175E+00  2.4905E-01   1.4684E+00  0.000E+00  0.000E+00  0.000E+00  1.07264E+03  1.727E+00  8.909E+00  6.682E-02  1.864E+00
   1    3    7     3     3    1.4684E+00  1.9718E-01   1.2712E+00  0.000E+00  0.000E+00  0.000E+00  1.06987E+03  1.555E+00  8.218E+00  5.547E-02  1.777E+00
   1    4    8     3     4    1.2712E+00  2.2567E-01   1.0456E+00  0.000E+00  0.000E+00  0.000E+00  1.06682E+03  1.364E+00  7.455E+00  6.709E-02  1.682E+00
   1    5    8     3     5    1.0456E+00  1.5790E-01   8.8768E-01  0.000E+00  0.000E+00  0.000E+00  1.06362E+03  1.164E+00  6.655E+00  4.991E-02  1.582E+00
   1    6    8     3     6    8.8768E-01  5.5980E-02   8.3170E-01  0.000E+00  0.000E+00  0.000E+00  1.06158E+03  1.036E+00  6.145E+00  1.844E-02  1.518E+00
   1    5   10     4     1    1.0000E+01  9.0919E-02   9.9091E+00  0.000E+00  0.000E+00  0.000E+00  1.07836E+03  6.368E-01  1.000E+01  2.500E-02  1.212E+00
   1    5    9     4     2    9.9091E+00  1.8158E-01   9.7275E+00  0.000E+00  0.000E+00  0.000E+00  1.07154E+03  6.315E-01  1.000E+01  5.000E-02  1.211E+00
   1    6    8     4     3    9.7275E+00  1.2689E-01   9.6006E+00  0.000E+00  0.000E+00  0.000E+00  1.06381E+03  6.256E-01  1.000E+01  3.500E-02  1.209E+00
   1    6    8     5     1    1.0432E+01  2.2686E-01   1.0205E+01  0.000E+00  0.000E+00  0.000E+00  1.05868E+03  6.790E-01  1.542E+01  6.166E-02  1.226E+00
   1    7    7     5     2    1.0205E+01  2.7894E-01   9.9265E+00  0.000E+00  0.000E+00  0.000E+00  1.05417E+03  6.732E-01  1.519E+01  7.594E-02  1.224E+00
   1    8    7     5     3    9.9265E+00  1.9221E-01   9.7343E+00  0.000E+00  0.000E+00  0.000E+00  1.04992E+03  6.676E-01  1.497E+01  5.241E-02  1.223E+00
   1    8    6     5     4    9.7343E+00  1.3577E-01   9.5985E+00  0.000E+00  0.000E+00  0.000E+00  1.04691E+03  6.637E-01  1.482E+01  3.706E-02  1.221E+00
   1    9    6     6     1    1.4086E+01  2.3167E-01   1.3855E+01  0.000E+00  0.000E+00  0.000E+00  1.04359E+03  8.612E-01  1.200E+01  6.000E-02  1.287E+00
   1   10    7     6     2    1.3855E+01  2.3116E-01   1.3624E+01  0.000E+00  0.000E+00  0.000E+00  1.03903E+03  8.526E-01  1.200E+01  6.000E-02  1.284E+00
   1   11    7     6     3    1.3624E+01  2.3064E-01   1.3393E+01  0.000E+00  0.000E+00  0.000E+00  1.03448E+03  8.440E-01  1.200E+01  6.000E-02  1.281E+00
   1   12    7     6     4    1.3393E+01  2.3012E-01   1.3163E+01  0.000E+00  0.000E+00  0.000E+00  1.02993E+03  8.353E-01  1.200E+01  6.000E-02  1.278E+00
   1   13    7     6     5    1.3163E+01 -1.7911E-02   1.3181E+01  0.000E+00  0.000E+00  0.000E+00  1.02674E+03  8.313E-01  1.200E+01  2.400E-01 -2.488E-02
   1   14    9     7     1    1.5000E+02  1.3652E+00   1.4863E+02  0.000E+00  0.000E+00  0.000E+00  1.03987E+03  2.288E+00  5.529E+01  5.593E-01  8.136E-01
   1   13    8     7     2    1.4863E+02  1.9205E+00   1.4671E+02  0.000E+00  0.000E+00  0.000E+00  1.03478E+03  2.279E+00  5.526E+01  6.148E-01  1.041E+00
   1   13    7     7     3    1.4671E+02  1.6048E+00   1.4511E+02  0.000E+00  0.000E+00  0.000E+00  1.02969E+03  2.269E+00  5.521E+01  5.584E-01  9.579E-01
   1   13    6     8     1    1.5829E+02  9.7525E-01   1.5732E+02  0.000E+00  0.000E+00  0.000E+00  1.02475E+03  2.871E+00  4.163E+01  4.242E-01  7.663E-01
   1   13    5     8     2    1.5732E+02  2.2782E-01   1.5709E+02  0.000E+00  0.000E+00  0.000E+00  1.01849E+03  2.867E+00  4.157E+01  4.236E-01  1.793E-01
   1   13    4     8     3    1.5709E+02 -2.2030E+00   1.5929E+02  0.000E+00  0.000E+00  0.000E+00  1.01225E+03  2.874E+00  4.167E+01  4.246E+00 -1.729E-01
   1   13    3     8     4    1.5929E+02 -3.4860E+00   1.6278E+02  0.000E+00  0.000E+00  0.000E+00  1.00602E+03  2.893E+00  4.195E+01  4.274E+00 -2.718E-01
   1   13    2     8     5    1.6278E+02 -2.4627E+00   1.6524E+02  0.000E+00  0.000E+00  0.000E+00  9.99788E+02  2.913E+00  4.223E+01  4.304E+00 -1.907E-01
   1   13    1     8     6    1.6524E+02 -1.9181E+00   1.6716E+02  0.000E+00  0.000E+00  0.000E+00  9.94802E+02  2.927E+00  4.245E+01  2.595E+00 -2.464E-01
   1    8    6     9     1    0.0000E+00  0.0000E+00   0.0000E+00  0.000E+00  0.000E+00  0.000E+00  1.07875E+03  0.000E+00  4.000E+00  0.000E+00  1.000E+00
   1    8    5     9     2    0.0000E+00  0.0000E+00   0.0000E+00  0.000E+00  0.000E+00  0.000E+00  1.07825E+03  0.000E+00  4.000E+00  0.000E+00  1.000E+00



 UBDSV3 SAVING "           GW ET" ON UNIT  61 AT TIME STEP  1, STRESS PERIOD   2
 UBDSV3 SAVING "    UZF RECHARGE" ON UNIT  61 AT TIME STEP  1, STRESS PERIOD   2
 UBDSV3 SAVING " SURFACE LEAKAGE" ON UNIT  61 AT TIME STEP  1, STRESS PERIOD   2
 UBDSV3 SAVING "       HORT+DUNN" ON UNIT  61 AT TIME STEP  1, STRESS PERIOD   2
 UBDSV3 SAVING "  STORAGE CHANGE" ON UNIT  61 AT TIME STEP  1, STRESS PERIOD   2


UNSATURATED ZONE PACKAGE VOLUMETRIC BUDGET FOR  TIME STEP     1 STRESS PERIOD    2
  ------------------------------------------------------------------------------



     CUMULATIVE VOLUMES      L**3       RATES FOR THIS TIME STEP      L**3/T
     ------------------                 ------------------------

           IN:                                      IN:
           ---                                      ---
        INFILTRATION =      147521.4958          INFILTRATION =           0.8475

          OUT:                                     OUT:
          ----                                     ----
              UZF ET =       65735.6246                UZF ET =           0.7498
        UZF RECHARGE =       73224.0000          UZF RECHARGE =       0.0000E+00

            IN - OUT =        8561.8711              IN - OUT =       9.7664E-02

          STORAGE:                                 STORAGE:
          --------                                 --------
      STORAGE CHANGE =        8561.8722        STORAGE CHANGE =       9.7664E-02

 PERCENT DISCREPANCY IS DIFFERENCE BETWEEN IN-OUT MINUS CHANGE IN STORAGE
 DIVIDED BY THE AVERAGE OF IN AND OUT TIMES 100

 PERCENT DISCREPANCY =           0.00     PERCENT DISCREPANCY =           0.00






 

            AG WELLS      PERIOD    2   STEP   1
 AG WELL      1   LAYER   1   ROW     6   COL     4   RATE     0.00000    
 AG WELL      2   LAYER   1   ROW     6   COL     5   RATE     0.00000    
 AG WELL      3   LAYER   1   ROW     7   COL     4   RATE     0.00000    
 AG WELL      4   LAYER   1   ROW     7   COL     5   RATE     0.00000    
 AG WELL      5   LAYER   1   ROW     8   COL     4   RATE     0.00000    
 AG WELL      6   LAYER   1   ROW     8   COL     5   RATE     0.00000    
 
 

   DIVERSION SEGMENTS     PERIOD    2   STEP   1
 
 

        SW IRRIGATION     PERIOD    2   STEP   1
 
 

        GW IRRIGATION     PERIOD    2   STEP   1
 
1
  VOLUMETRIC BUDGET FOR AGRICULTURAL FIELDS AT  END OF TIME STEP    1, STRESS PERIOD   2
  ------------------------------------------------------------------------------

     CUMULATIVE VOLUMES      L**3       RATES FOR THIS TIME STEP      L**3/T
     ------------------                 ------------------------

           IN:                                      IN:
           ---                                      ---
               AG WELLS  =           0.0000                 AG WELLS  =           0.0000
      DIVERSION SEGMENTS =           0.0000        DIVERSION SEGMENTS =           0.0000
           GW IRRIGATION =           0.0000             GW IRRIGATION =           0.0000
           SW IRRIGATION =           0.0000             SW IRRIGATION =           0.0000
        SYSTEM LOSSES GW =           0.0000          SYSTEM LOSSES GW =           0.0000
        SYSTEM LOSSES SW =           0.0000          SYSTEM LOSSES SW =           0.0000

                TOTAL IN =           0.0000                  TOTAL IN =           0.0000

          OUT:                                     OUT:
          ----                                     ----
               AG WELLS  =           0.0000                 AG WELLS  =           0.0000
      DIVERSION SEGMENTS =           0.0000        DIVERSION SEGMENTS =           0.0000
           GW IRRIGATION =           0.0000             GW IRRIGATION =           0.0000
           SW IRRIGATION =           0.0000             SW IRRIGATION =           0.0000
        SYSTEM LOSSES GW =           0.0000          SYSTEM LOSSES GW =           0.0000
        SYSTEM LOSSES SW =           0.0000          SYSTEM LOSSES SW =           0.0000

               TOTAL OUT =           0.0000                 TOTAL OUT =           0.0000

                IN - OUT =           0.0000                  IN - OUT =           0.0000

     PERCENT DISCREPANCY =           0.00         PERCENT DISCREPANCY =           0.00



1
              HEAD IN LAYER   1 AT END OF TIME STEP   1 IN STRESS PERIOD    2
  ---------------------------------------------------------------------------

           1       2       3       4       5       6       7       8       9      10
 ...................................................................................
   1  1029.26 1028.36 6999.00 6999.00 6999.00 6999.00 6999.00 6999.00 6999.00 6999.00
   2  1028.45 1027.36 1026.88 6999.00 6999.00 1028.30 1028.48 1028.46 6999.00 6999.00
   3  6999.00 1026.66 1026.39 1026.21 1026.77 1027.48 1028.04 1028.04 6999.00 6999.00
   4  1026.25 1026.11 1025.89 1025.72 1025.72 1025.86 1026.44 1027.58 1027.34 6999.00
   5  1025.90 1025.50 1025.30 1025.20 1025.26 1025.43 1025.71 1026.26 1026.91 1027.46
   6  1025.46 1024.92 1024.71 1024.66 1024.75 1024.99 1025.37 1025.92 1026.38 1027.29
   7  1025.06 1024.16 1023.99 1024.01 1024.15 1024.46 1024.94 1025.38 1025.92 6999.00
   8  6999.00 1023.02 1023.05 1023.19 1023.40 1023.81 1024.28 1024.92 1025.60 6999.00
   9  6999.00 1021.31 1021.62 1022.06 1022.44 1023.05 1023.57 1024.31 1025.54 6999.00
  10  6999.00 1018.82 1019.57 1020.57 1021.33 1022.32 1023.23 1024.33 1025.99 1026.64
  11  6999.00 1014.68 1016.10 1018.53 1020.11 1021.81 1023.34 1025.18 1027.44 6999.00
  12  1001.77 1007.67 1011.76 1015.60 1018.78 1021.71 1024.22 1027.74 1030.81 6999.00
  13   995.54 1000.36 1006.83 1012.77 1017.95 1022.45 1026.81 1031.65 1034.50 6999.00
  14  6999.00 1005.73 1008.80 1013.40 1018.06 1022.43 1027.39 1032.95 1037.43 6999.00
  15  6999.00 6999.00 1012.40 1015.08 1018.50 1021.48 6999.00 6999.00 6999.00 6999.00
1
  VOLUMETRIC BUDGET FOR ENTIRE MODEL AT END OF TIME STEP    1, STRESS PERIOD   2
  ------------------------------------------------------------------------------

     CUMULATIVE VOLUMES      L**3       RATES FOR THIS TIME STEP      L**3/T
     ------------------                 ------------------------

           IN:                                      IN:
           ---                                      ---
             STORAGE     =       65430.3203               STORAGE     =           0.7464
       CONSTANT HEAD     =           0.0000         CONSTANT HEAD     =           0.0000
     HEAD DEP BOUNDS     =       50088.7578       HEAD DEP BOUNDS     =           0.2878
      STREAM LEAKAGE     =     1812343.5000        STREAM LEAKAGE     =          11.1807
        UZF RECHARGE     =       73223.9531          UZF RECHARGE     =           0.0000
               GW ET     =           0.0000                 GW ET     =           0.0000
     SURFACE LEAKAGE     =           0.0000       SURFACE LEAKAGE     =           0.0000
           AG WELLS      =           0.0000             AG WELLS      =           0.0000

                TOTAL IN =     2001086.6250                  TOTAL IN =          12.2148

          OUT:                                     OUT:
          ----                                     ----
             STORAGE     =      161381.9375               STORAGE     =           1.8409
       CONSTANT HEAD     =           0.0000         CONSTANT HEAD     =           0.0000
     HEAD DEP BOUNDS     =       49879.4922       HEAD DEP BOUNDS     =           0.2866
      STREAM LEAKAGE     =     1789852.0000        STREAM LEAKAGE     =          10.0876
        UZF RECHARGE     =           0.0000          UZF RECHARGE     =           0.0000
               GW ET     =           0.0000                 GW ET     =           0.0000
     SURFACE LEAKAGE     =           0.0000       SURFACE LEAKAGE     =           0.0000
           AG WELLS      =           0.0000             AG WELLS      =           0.0000

               TOTAL OUT =     2001113.5000                 TOTAL OUT =          12.2151

                IN - OUT =         -26.8750                  IN - OUT =      -3.0899E-04

     PERCENT DISCREPANCY =          -0.00         PERCENT DISCREPANCY =          -0.00






         TIME SUMMARY AT END OF TIME STEP    1 IN STRESS PERIOD    2
                    SECONDS     MINUTES      HOURS       DAYS        YEARS
                    -----------------------------------------------------------
   TIME STEP LENGTH  87667.      1461.1      24.352      1.0147     2.77799E-03
 STRESS PERIOD TIME  87667.      1461.1      24.352      1.0147     2.77799E-03
         TOTAL TIME 1.74067E+05  2901.1      48.352      2.0147     5.51584E-03
1
 
 SOLVING FOR HEAD 
                                                   Max.-Head-Change                         Max.-Flux-Residual
  Residual-Control   Outer-Iter.   Inner-Iter.     Column Row Layer    Maximum-Head-Change  Column Row Layer    Maximum-Flux-Residual          L2-NORM 
          0                 1           2             5    4     1       0.4771848866E-02       5    4    1         0.2582579971E+00      0.5403926138E+00
          0                 2           2             5    4     1      -0.4641721319E-03       5    4    1        -0.2582589402E-01      0.5389205072E-01
          0                 3           1             5    4     1       0.3160838333E-04       5    4    1         0.1807812460E-02      0.3758911888E-02

    ------------------------------------------------
       NWT REQUIRED            3 OUTER ITERATIONS 
       AND A TOTAL OF          5 INNER ITERATIONS.
    ------------------------------------------------

 NO OUTPUT CONTROL FOR STRESS PERIOD    2   TIME STEP    2
 
 SOLVING FOR HEAD 
                                                   Max.-Head-Change                         Max.-Flux-Residual
  Residual-Control   Outer-Iter.   Inner-Iter.     Column Row Layer    Maximum-Head-Change  Column Row Layer    Maximum-Flux-Residual          L2-NORM 
          0                 1           2             5    4     1       0.4583646614E-02       5    4    1         0.2478846946E+00      0.5216599243E+00
          0                 2           2             5    4     1      -0.4458650693E-03       5    4    1        -0.2478855577E-01      0.5203508354E-01
          0                 3           1             5    4     1       0.3036174166E-04       5    4    1         0.1735198828E-02      0.3630483295E-02

    ------------------------------------------------
       NWT REQUIRED            3 OUTER ITERATIONS 
       AND A TOTAL OF          5 INNER ITERATIONS.
    ------------------------------------------------

 NO OUTPUT CONTROL FOR STRESS PERIOD    2   TIME STEP    3
 
 SOLVING FOR HEAD 
                                                   Max.-Head-Change                         Max.-Flux-Residual
  Residual-Control   Outer-Iter.   Inner-Iter.     Column Row Layer    Maximum-Head-Change  Column Row Layer    Maximum-Flux-Residual          L2-NORM 
          0                 1           2             5    4     1       0.4406074969E-02       5    4    1         0.2381005685E+00      0.5043754330E+00
          0                 2           2             5    4     1      -0.4285920862E-03       5    4    1        -0.2381013595E-01      0.5032141526E-01
          0                 3           1             5    4     1       0.2918551645E-04       5    4    1         0.1666709469E-02      0.3511958027E-02

    ------------------------------------------------
       NWT REQUIRED            3 OUTER ITERATIONS 
       AND A TOTAL OF          5 INNER ITERATIONS.
    ------------------------------------------------

 NO OUTPUT CONTROL FOR STRESS PERIOD    2   TIME STEP    4
 
 SOLVING FOR HEAD 
                                                   Max.-Head-Change                         Max.-Flux-Residual
  Residual-Control   Outer-Iter.   Inner-Iter.     Column Row Layer    Maximum-Head-Change  Column Row Layer    Maximum-Flux-Residual          L2-NORM 
          0                 1           2             5    4     1       0.4238682244E-02       5    4    1         0.2288806993E+00      0.4884228697E+00
          0                 2           2             5    4     1      -0.4123092439E-03       5    4    1        -0.2288814246E-01      0.4873944241E-01
          0                 3           1             5    4     1       0.2807671661E-04       5    4    1         0.1602169973E-02      0.3402466816E-02

    ------------------------------------------------
       NWT REQUIRED            3 OUTER ITERATIONS 
       AND A TOTAL OF          5 INNER ITERATIONS.
    ------------------------------------------------

 NO OUTPUT CONTROL FOR STRESS PERIOD    2   TIME STEP    5
 
 SOLVING FOR HEAD 
                                                   Max.-Head-Change                         Max.-Flux-Residual
  Residual-Control   Outer-Iter.   Inner-Iter.     Column Row Layer    Maximum-Head-Change  Column Row Layer    Maximum-Flux-Residual          L2-NORM 
          0                 1           2             5    4     1       0.4080580036E-02       5    4    1         0.2201755166E+00      0.4736649229E+00
          0                 2           2             5    4     1      -0.3969301254E-03       5    4    1        -0.2201761830E-01      0.4727546707E-01
          0                 3           1             5    4     1       0.2702945702E-04       5    4    1         0.1541233318E-02      0.3300549705E-02

    ------------------------------------------------
       NWT REQUIRED            3 OUTER ITERATIONS 
       AND A TOTAL OF          5 INNER ITERATIONS.
    ------------------------------------------------

 NO OUTPUT CONTROL FOR STRESS PERIOD    2   TIME STEP    6
 
 SOLVING FOR HEAD 
                                                   Max.-Head-Change                         Max.-Flux-Residual
  Residual-Control   Outer-Iter.   Inner-Iter.     Column Row Layer    Maximum-Head-Change  Column Row Layer    Maximum-Flux-Residual          L2-NORM 
          0                 1           2             5    4     1       0.3931653136E-02       5    4    1         0.2119781742E+00      0.4600295403E+00
          0                 2           2             5    4     1      -0.3824435221E-03       5    4    1        -0.2119787871E-01      0.4592215656E-01
          0                 3           1             5    4     1       0.2604297419E-04       5    4    1         0.1483851583E-02      0.3207476688E-02

    ------------------------------------------------
       NWT REQUIRED            3 OUTER ITERATIONS 
       AND A TOTAL OF          5 INNER ITERATIONS.
    ------------------------------------------------

 NO OUTPUT CONTROL FOR STRESS PERIOD    2   TIME STEP    7
 
 SOLVING FOR HEAD 
                                                   Max.-Head-Change                         Max.-Flux-Residual
  Residual-Control   Outer-Iter.   Inner-Iter.     Column Row Layer    Maximum-Head-Change  Column Row Layer    Maximum-Flux-Residual          L2-NORM 
          0                 1           2             5    4     1       0.3790839201E-02       5    4    1         0.2042304030E+00      0.4474016379E+00
          0                 2           2             5    4     1      -0.3687460954E-03       5    4    1        -0.2042309670E-01      0.4466867068E-01
          0                 3           1             5    4     1       0.2511023086E-04       5    4    1         0.1429616859E-02      0.3120145003E-02

    ------------------------------------------------
       NWT REQUIRED            3 OUTER ITERATIONS 
       AND A TOTAL OF          5 INNER ITERATIONS.
    ------------------------------------------------

 NO OUTPUT CONTROL FOR STRESS PERIOD    2   TIME STEP    8
 
 SOLVING FOR HEAD 
                                                   Max.-Head-Change                         Max.-Flux-Residual
  Residual-Control   Outer-Iter.   Inner-Iter.     Column Row Layer    Maximum-Head-Change  Column Row Layer    Maximum-Flux-Residual          L2-NORM 
          0                 1           2             5    4     1       0.3657864785E-02       5    4    1         0.1969163543E+00      0.4356950680E+00
          0                 2           2             5    4     1      -0.3558112468E-03       5    4    1        -0.1969168741E-01      0.4350628254E-01
          0                 3           1             5    4     1       0.2422941649E-04       5    4    1         0.1378418233E-02      0.3039655930E-02

    ------------------------------------------------
       NWT REQUIRED            3 OUTER ITERATIONS 
       AND A TOTAL OF          5 INNER ITERATIONS.
    ------------------------------------------------

 NO OUTPUT CONTROL FOR STRESS PERIOD    2   TIME STEP    9
 
 SOLVING FOR HEAD 
                                                   Max.-Head-Change                         Max.-Flux-Residual
  Residual-Control   Outer-Iter.   Inner-Iter.     Column Row Layer    Maximum-Head-Change  Column Row Layer    Maximum-Flux-Residual          L2-NORM 
          0                 1           2             5    4     1       0.3532230609E-02       5    4    1         0.1900087706E+00      0.4248474512E+00
          0                 2           2             5    4     1      -0.3435904094E-03       5    4    1        -0.1900092505E-01      0.4242879365E-01
          0                 3           1             5    4     1       0.2339722356E-04       5    4    1         0.1330064849E-02      0.2964925330E-02

    ------------------------------------------------
       NWT REQUIRED            3 OUTER ITERATIONS 
       AND A TOTAL OF          5 INNER ITERATIONS.
    ------------------------------------------------

 NO OUTPUT CONTROL FOR STRESS PERIOD    2   TIME STEP   10
 
 SOLVING FOR HEAD 
                                                   Max.-Head-Change                         Max.-Flux-Residual
  Residual-Control   Outer-Iter.   Inner-Iter.     Column Row Layer    Maximum-Head-Change  Column Row Layer    Maximum-Flux-Residual          L2-NORM 
          0                 1           2             5    4     1       0.3413719440E-02       5    4    1         0.1834948456E+00      0.4147734414E+00
          0                 2           2             5    4     1      -0.3320624520E-03       5    4    1        -0.1834952888E-01      0.4142774901E-01
          0                 3           1             5    4     1       0.2261221382E-04       5    4    1         0.1284467161E-02      0.2895291327E-02

    ------------------------------------------------
       NWT REQUIRED            3 OUTER ITERATIONS 
       AND A TOTAL OF          5 INNER ITERATIONS.
    ------------------------------------------------

 NO OUTPUT CONTROL FOR STRESS PERIOD    2   TIME STEP   11
 
 SOLVING FOR HEAD 
                                                   Max.-Head-Change                         Max.-Flux-Residual
  Residual-Control   Outer-Iter.   Inner-Iter.     Column Row Layer    Maximum-Head-Change  Column Row Layer    Maximum-Flux-Residual          L2-NORM 
          0                 1           2             5    4     1       0.3301407998E-02       5    4    1         0.1773240514E+00      0.4054010488E+00
          0                 2           2             5    4     1      -0.3211375633E-03       5    4    1        -0.1773244614E-01      0.4049601151E-01
          0                 3           1             5    4     1       0.2186826997E-04       5    4    1         0.1241271389E-02      0.2830718806E-02

    ------------------------------------------------
       NWT REQUIRED            3 OUTER ITERATIONS 
       AND A TOTAL OF          5 INNER ITERATIONS.
    ------------------------------------------------

 NO OUTPUT CONTROL FOR STRESS PERIOD    2   TIME STEP   12
 
 SOLVING FOR HEAD 
                                                   Max.-Head-Change                         Max.-Flux-Residual
  Residual-Control   Outer-Iter.   Inner-Iter.     Column Row Layer    Maximum-Head-Change  Column Row Layer    Maximum-Flux-Residual          L2-NORM 
          0                 1           2             5    4     1       0.3195383374E-02       5    4    1         0.1715009104E+00      0.3966851202E+00
          0                 2           2             5    4     1      -0.3108242143E-03       5    4    1        -0.1715012899E-01      0.3962953515E-01
          0                 3           1             5    4     1       0.2116597020E-04       5    4    1         0.1200509189E-02      0.2770438961E-02

    ------------------------------------------------
       NWT REQUIRED            3 OUTER ITERATIONS 
       AND A TOTAL OF          5 INNER ITERATIONS.
    ------------------------------------------------

 NO OUTPUT CONTROL FOR STRESS PERIOD    2   TIME STEP   13
 
 SOLVING FOR HEAD 
                                                   Max.-Head-Change                         Max.-Flux-Residual
  Residual-Control   Outer-Iter.   Inner-Iter.     Column Row Layer    Maximum-Head-Change  Column Row Layer    Maximum-Flux-Residual          L2-NORM 
          0                 1           2             5    4     1       0.3094775221E-02       5    4    1         0.1659775448E+00      0.3885592615E+00
          0                 2           2             5    4     1      -0.3010377445E-03       5    4    1        -0.1659778965E-01      0.3882158098E-01
          0                 3           1             5    4     1       0.2049954892E-04       5    4    1         0.1161845449E-02      0.2713995864E-02

    ------------------------------------------------
       NWT REQUIRED            3 OUTER ITERATIONS 
       AND A TOTAL OF          5 INNER ITERATIONS.
    ------------------------------------------------

 NO OUTPUT CONTROL FOR STRESS PERIOD    2   TIME STEP   14
 
 SOLVING FOR HEAD 
                                                   Max.-Head-Change                         Max.-Flux-Residual
  Residual-Control   Outer-Iter.   Inner-Iter.     Column Row Layer    Maximum-Head-Change  Column Row Layer    Maximum-Flux-Residual          L2-NORM 
          0                 1           2             5    4     1       0.2999970496E-02       5    4    1         0.1607742558E+00      0.3809926144E+00
          0                 2           2             5    4     1      -0.2918157933E-03       5    4    1        -0.1607745822E-01      0.3806886680E-01
          0                 3           1             5    4     1       0.1987156858E-04       5    4    1         0.1125422250E-02      0.2662045226E-02

    ------------------------------------------------
       NWT REQUIRED            3 OUTER ITERATIONS 
       AND A TOTAL OF          5 INNER ITERATIONS.
    ------------------------------------------------

 NO OUTPUT CONTROL FOR STRESS PERIOD    2   TIME STEP   15
 
 SOLVING FOR HEAD 
                                                   Max.-Head-Change                         Max.-Flux-Residual
  Residual-Control   Outer-Iter.   Inner-Iter.     Column Row Layer    Maximum-Head-Change  Column Row Layer    Maximum-Flux-Residual          L2-NORM 
          0                 1           2             5    4     1       0.2909894024E-02       5    4    1         0.1558326222E+00      0.3739167242E+00
          0                 2           2             5    4     1      -0.2830537752E-03       5    4    1        -0.1558329251E-01      0.3736475261E-01
          0                 3           1             5    4     1       0.1927490840E-04       5    4    1         0.1090830656E-02      0.2613179974E-02

    ------------------------------------------------
       NWT REQUIRED            3 OUTER ITERATIONS 
       AND A TOTAL OF          5 INNER ITERATIONS.
    ------------------------------------------------

 NO OUTPUT CONTROL FOR STRESS PERIOD    2   TIME STEP   16
 
 SOLVING FOR HEAD 
                                                   Max.-Head-Change                         Max.-Flux-Residual
  Residual-Control   Outer-Iter.   Inner-Iter.     Column Row Layer    Maximum-Head-Change  Column Row Layer    Maximum-Flux-Residual          L2-NORM 
          0                 1           2             5    4     1       0.2824734754E-02       5    4    1         0.1511623018E+00      0.3673108398E+00
          0                 2           2             5    4     1      -0.2747700697E-03       5    4    1        -0.1511625835E-01      0.3670722980E-01
          0                 3           1             5    4     1       0.1871081966E-04       5    4    1         0.1058138277E-02      0.2567322380E-02

    ------------------------------------------------
       NWT REQUIRED            3 OUTER ITERATIONS 
       AND A TOTAL OF          5 INNER ITERATIONS.
    ------------------------------------------------

 NO OUTPUT CONTROL FOR STRESS PERIOD    2   TIME STEP   17
 
 SOLVING FOR HEAD 
                                                   Max.-Head-Change                         Max.-Flux-Residual
  Residual-Control   Outer-Iter.   Inner-Iter.     Column Row Layer    Maximum-Head-Change  Column Row Layer    Maximum-Flux-Residual          L2-NORM 
          0                 1           2             5    4     1       0.2743946317E-02       5    4    1         0.1467338490E+00      0.3611125834E+00
          0                 2           2             5    4     1      -0.2669115301E-03       5    4    1        -0.1467341113E-01      0.3609012200E-01
          0                 3           1             5    4     1       0.1817568317E-04       5    4    1         0.1027138984E-02      0.2524302280E-02

    ------------------------------------------------
       NWT REQUIRED            3 OUTER ITERATIONS 
       AND A TOTAL OF          5 INNER ITERATIONS.
    ------------------------------------------------

 NO OUTPUT CONTROL FOR STRESS PERIOD    2   TIME STEP   18
 
 SOLVING FOR HEAD 
                                                   Max.-Head-Change                         Max.-Flux-Residual
  Residual-Control   Outer-Iter.   Inner-Iter.     Column Row Layer    Maximum-Head-Change  Column Row Layer    Maximum-Flux-Residual          L2-NORM 
          0                 1           2             5    4     1       0.2667267928E-02       5    4    1         0.1425320160E+00      0.3553067073E+00
          0                 2           2             5    4     1      -0.2594527879E-03       5    4    1        -0.1425322602E-01      0.3551210940E-01
          0                 3           1             5    4     1       0.1766777144E-04       5    4    1         0.9977260479E-03      0.2484093864E-02

    ------------------------------------------------
       NWT REQUIRED            3 OUTER ITERATIONS 
       AND A TOTAL OF          5 INNER ITERATIONS.
    ------------------------------------------------

 NO OUTPUT CONTROL FOR STRESS PERIOD    2   TIME STEP   19
 
 SOLVING FOR HEAD 
                                                   Max.-Head-Change                         Max.-Flux-Residual
  Residual-Control   Outer-Iter.   Inner-Iter.     Column Row Layer    Maximum-Head-Change  Column Row Layer    Maximum-Flux-Residual          L2-NORM 
          0                 1           2             5    4     1       0.2594683874E-02       5    4    1         0.1385563632E+00      0.3498584713E+00
          0                 2           2             5    4     1      -0.2523923151E-03       5    4    1        -0.1385565912E-01      0.3496913352E-01
          0                 3           1             5    4     1       0.1718697963E-04       5    4    1         0.9698963459E-03      0.2446047290E-02

    ------------------------------------------------
       NWT REQUIRED            3 OUTER ITERATIONS 
       AND A TOTAL OF          5 INNER ITERATIONS.
    ------------------------------------------------

 NO OUTPUT CONTROL FOR STRESS PERIOD    2   TIME STEP   20
 
 SOLVING FOR HEAD 
                                                   Max.-Head-Change                         Max.-Flux-Residual
  Residual-Control   Outer-Iter.   Inner-Iter.     Column Row Layer    Maximum-Head-Change  Column Row Layer    Maximum-Flux-Residual          L2-NORM 
          0                 1           2             5    4     1       0.2525710318E-02       5    4    1         0.1347799133E+00      0.3447335523E+00
          0                 2           2             5    4     1      -0.2456830467E-03       5    4    1        -0.1347801258E-01      0.3445867527E-01
          0                 3           1             5    4     1       0.1673010413E-04       5    4    1         0.9434610924E-03      0.2410737664E-02

    ------------------------------------------------
       NWT REQUIRED            3 OUTER ITERATIONS 
       AND A TOTAL OF          5 INNER ITERATIONS.
    ------------------------------------------------

 NO OUTPUT CONTROL FOR STRESS PERIOD    2   TIME STEP   21
 
 SOLVING FOR HEAD 
                                                   Max.-Head-Change                         Max.-Flux-Residual
  Residual-Control   Outer-Iter.   Inner-Iter.     Column Row Layer    Maximum-Head-Change  Column Row Layer    Maximum-Flux-Residual          L2-NORM 
          0                 1           2             5    4     1       0.2460369697E-02       5    4    1         0.1312037428E+00      0.3399136851E+00
          0                 2           2             5    4     1      -0.2393271658E-03       5    4    1        -0.1312039414E-01      0.3397835671E-01
          0                 3           1             5    4     1       0.1629729285E-04       5    4    1         0.9184278090E-03      0.2377290751E-02

    ------------------------------------------------
       NWT REQUIRED            3 OUTER ITERATIONS 
       AND A TOTAL OF          5 INNER ITERATIONS.
    ------------------------------------------------

 NO OUTPUT CONTROL FOR STRESS PERIOD    2   TIME STEP   22
 
 SOLVING FOR HEAD 
                                                   Max.-Head-Change                         Max.-Flux-Residual
  Residual-Control   Outer-Iter.   Inner-Iter.     Column Row Layer    Maximum-Head-Change  Column Row Layer    Maximum-Flux-Residual          L2-NORM 
          0                 1           2             5    4     1       0.2398203527E-02       5    4    1         0.1278028525E+00      0.3353733044E+00
          0                 2           2             5    4     1      -0.2332800742E-03       5    4    1        -0.1278030381E-01      0.3352587781E-01
          0                 3           1             5    4     1       0.1588550905E-04       5    4    1         0.8946214930E-03      0.2345740745E-02

    ------------------------------------------------
       NWT REQUIRED            3 OUTER ITERATIONS 
       AND A TOTAL OF          5 INNER ITERATIONS.
    ------------------------------------------------

 NO OUTPUT CONTROL FOR STRESS PERIOD    2   TIME STEP   23
 
 SOLVING FOR HEAD 
                                                   Max.-Head-Change                         Max.-Flux-Residual
  Residual-Control   Outer-Iter.   Inner-Iter.     Column Row Layer    Maximum-Head-Change  Column Row Layer    Maximum-Flux-Residual          L2-NORM 
          0                 1           2             5    4     1       0.2339267473E-02       5    4    1         0.1245796789E+00      0.3310885217E+00
          0                 2           2             5    4     1      -0.2275471861E-03       5    4    1        -0.1245798528E-01      0.3309851874E-01
          0                 3           1             5    4     1       0.1549512122E-04       5    4    1         0.8720591832E-03      0.2315882109E-02

    ------------------------------------------------
       NWT REQUIRED            3 OUTER ITERATIONS 
       AND A TOTAL OF          5 INNER ITERATIONS.
    ------------------------------------------------

 NO OUTPUT CONTROL FOR STRESS PERIOD    2   TIME STEP   24
 
 SOLVING FOR HEAD 
                                                   Max.-Head-Change                         Max.-Flux-Residual
  Residual-Control   Outer-Iter.   Inner-Iter.     Column Row Layer    Maximum-Head-Change  Column Row Layer    Maximum-Flux-Residual          L2-NORM 
          0                 1           2             5    4     1       0.2283365698E-02       5    4    1         0.1215238906E+00      0.3270408771E+00
          0                 2           2             5    4     1      -0.2221094521E-03       5    4    1        -0.1215240536E-01      0.3269509909E-01
          0                 3           1             5    4     1       0.1512483193E-04       5    4    1         0.8506685831E-03      0.2287891361E-02

    ------------------------------------------------
       NWT REQUIRED            3 OUTER ITERATIONS 
       AND A TOTAL OF          5 INNER ITERATIONS.
    ------------------------------------------------

 NO OUTPUT CONTROL FOR STRESS PERIOD    2   TIME STEP   25
 
 SOLVING FOR HEAD 
                                                   Max.-Head-Change                         Max.-Flux-Residual
  Residual-Control   Outer-Iter.   Inner-Iter.     Column Row Layer    Maximum-Head-Change  Column Row Layer    Maximum-Flux-Residual          L2-NORM 
          0                 1           2             5    4     1       0.2230079846E-02       5    4    1         0.1186123882E+00      0.3232037862E+00
          0                 2           2             5    4     1      -0.2169261767E-03       5    4    1        -0.1186125409E-01      0.3231225773E-01
          0                 3           1             5    4     1       0.1477187043E-04       5    4    1         0.8302879903E-03      0.2261016746E-02

    ------------------------------------------------
       NWT REQUIRED            3 OUTER ITERATIONS 
       AND A TOTAL OF          5 INNER ITERATIONS.
    ------------------------------------------------

 NO OUTPUT CONTROL FOR STRESS PERIOD    2   TIME STEP   26
 
 SOLVING FOR HEAD 
                                                   Max.-Head-Change                         Max.-Flux-Residual
  Residual-Control   Outer-Iter.   Inner-Iter.     Column Row Layer    Maximum-Head-Change  Column Row Layer    Maximum-Flux-Residual          L2-NORM 
          0                 1           2             5    4     1       0.2179256357E-02       5    4    1         0.1158365170E+00      0.3195661512E+00
          0                 2           2             5    4     1      -0.2119824240E-03       5    4    1        -0.1158366605E-01      0.3194946474E-01
          0                 3           1             5    4     1       0.1443521974E-04       5    4    1         0.8108568304E-03      0.2235872331E-02

    ------------------------------------------------
       NWT REQUIRED            3 OUTER ITERATIONS 
       AND A TOTAL OF          5 INNER ITERATIONS.
    ------------------------------------------------

 NO OUTPUT CONTROL FOR STRESS PERIOD    2   TIME STEP   27
 
 SOLVING FOR HEAD 
                                                   Max.-Head-Change                         Max.-Flux-Residual
  Residual-Control   Outer-Iter.   Inner-Iter.     Column Row Layer    Maximum-Head-Change  Column Row Layer    Maximum-Flux-Residual          L2-NORM 
          0                 1           2             5    4     1       0.2131225068E-02       5    4    1         0.1132144787E+00      0.3161253915E+00
          0                 2           2             5    4     1      -0.2073102767E-03       5    4    1        -0.1132146134E-01      0.3160621951E-01
          0                 3           1             5    4     1       0.1411706459E-04       5    4    1         0.7925025059E-03      0.2211814484E-02

    ------------------------------------------------
       NWT REQUIRED            3 OUTER ITERATIONS 
       AND A TOTAL OF          5 INNER ITERATIONS.
    ------------------------------------------------

 NO OUTPUT CONTROL FOR STRESS PERIOD    2   TIME STEP   28
 
 SOLVING FOR HEAD 
                                                   Max.-Head-Change                         Max.-Flux-Residual
  Residual-Control   Outer-Iter.   Inner-Iter.     Column Row Layer    Maximum-Head-Change  Column Row Layer    Maximum-Flux-Residual          L2-NORM 
          0                 1           2             5    4     1       0.2085111076E-02       5    4    1         0.1106979657E+00      0.3128491516E+00
          0                 2           2             5    4     1      -0.2028246317E-03       5    4    1        -0.1106980924E-01      0.3127911464E-01
          0                 3           1             5    4     1       0.1381160957E-04       5    4    1         0.7748868904E-03      0.2188973678E-02

    ------------------------------------------------
       NWT REQUIRED            3 OUTER ITERATIONS 
       AND A TOTAL OF          5 INNER ITERATIONS.
    ------------------------------------------------

 NO OUTPUT CONTROL FOR STRESS PERIOD    2   TIME STEP   29
 
 SOLVING FOR HEAD 
                                                   Max.-Head-Change                         Max.-Flux-Residual
  Residual-Control   Outer-Iter.   Inner-Iter.     Column Row Layer    Maximum-Head-Change  Column Row Layer    Maximum-Flux-Residual          L2-NORM 
          0                 1           2             5    4     1       0.2041517049E-02       5    4    1         0.1083201072E+00      0.3097361467E+00
          0                 2           2             5    4     1      -0.1985841105E-03       5    4    1        -0.1083202265E-01      0.3096867111E-01
          0                 3           1             5    4     1       0.1352284593E-04       5    4    1         0.7582417979E-03      0.2167358548E-02

    ------------------------------------------------
       NWT REQUIRED            3 OUTER ITERATIONS 
       AND A TOTAL OF          5 INNER ITERATIONS.
    ------------------------------------------------

 NO OUTPUT CONTROL FOR STRESS PERIOD    2   TIME STEP   30



 STREAM LISTING     PERIOD      2   STEP       30

 LAYER ROW COL. STREAM  RCH.  FLOW INTO     FLOW TO   FLOW OUT OF   OVRLND.     DIRECT     STREAM       STREAM     STREAM     STREAM   STREAMBED  STREAMBED
                SEG.NO.  NO.  STRM. RCH.    AQUIFER    STRM. RCH.    RUNOFF     PRECIP       ET          HEAD       DEPTH      WIDTH   CONDCTNC.   GRADIENT

   1    1    1     1     1    8.2500E+00  1.3178E-01   8.1182E+00  0.000E+00  0.000E+00  0.000E+00  1.09389E+03  8.424E-01  7.622E+00  3.430E-02  1.281E+00
   1    2    2     1     2    8.1182E+00  2.0240E-01   7.9158E+00  0.000E+00  0.000E+00  0.000E+00  1.08890E+03  8.367E-01  7.536E+00  5.276E-02  1.279E+00
   1    3    3     1     3    7.9158E+00  1.7099E-01   7.7448E+00  0.000E+00  0.000E+00  0.000E+00  1.08325E+03  8.302E-01  7.440E+00  4.464E-02  1.277E+00
   1    3    4     1     4    7.7448E+00  1.5612E-01   7.5887E+00  0.000E+00  0.000E+00  0.000E+00  1.07823E+03  8.244E-01  7.355E+00  4.082E-02  1.275E+00
   1    4    5     2     1    5.5887E+00  2.7178E-01   5.3169E+00  0.000E+00  0.000E+00  0.000E+00  1.07242E+03  4.843E-01  1.200E+01  7.800E-02  1.161E+00
   1    5    6     2     2    5.3169E+00  2.0828E-01   5.1087E+00  0.000E+00  0.000E+00  0.000E+00  1.06698E+03  4.714E-01  1.200E+01  6.000E-02  1.157E+00
   1    6    6     2     3    5.1087E+00  2.0760E-01   4.9010E+00  0.000E+00  0.000E+00  0.000E+00  1.06225E+03  4.600E-01  1.200E+01  6.000E-02  1.153E+00
   1    7    6     2     4    4.9010E+00  2.0691E-01   4.6941E+00  0.000E+00  0.000E+00  0.000E+00  1.05752E+03  4.485E-01  1.200E+01  6.000E-02  1.149E+00
   1    8    6     2     5    4.6941E+00  2.0621E-01   4.4879E+00  0.000E+00  0.000E+00  0.000E+00  1.05280E+03  4.368E-01  1.200E+01  6.000E-02  1.146E+00
   1    3    5     3     1    2.0000E+00  2.8252E-01   1.7175E+00  0.000E+00  0.000E+00  0.000E+00  1.07555E+03  1.909E+00  9.636E+00  7.227E-02  1.955E+00
   1    3    6     3     2    1.7175E+00  2.4905E-01   1.4684E+00  0.000E+00  0.000E+00  0.000E+00  1.07264E+03  1.727E+00  8.909E+00  6.682E-02  1.864E+00
   1    3    7     3     3    1.4684E+00  1.9718E-01   1.2712E+00  0.000E+00  0.000E+00  0.000E+00  1.06987E+03  1.555E+00  8.218E+00  5.547E-02  1.777E+00
   1    4    8     3     4    1.2712E+00  2.2567E-01   1.0456E+00  0.000E+00  0.000E+00  0.000E+00  1.06682E+03  1.364E+00  7.455E+00  6.709E-02  1.682E+00
   1    5    8     3     5    1.0456E+00  1.5790E-01   8.8768E-01  0.000E+00  0.000E+00  0.000E+00  1.06362E+03  1.164E+00  6.655E+00  4.991E-02  1.582E+00
   1    6    8     3     6    8.8768E-01  5.5980E-02   8.3170E-01  0.000E+00  0.000E+00  0.000E+00  1.06158E+03  1.036E+00  6.145E+00  1.844E-02  1.518E+00
   1    5   10     4     1    1.0000E+01  9.0919E-02   9.9091E+00  0.000E+00  0.000E+00  0.000E+00  1.07836E+03  6.368E-01  1.000E+01  2.500E-02  1.212E+00
   1    5    9     4     2    9.9091E+00  1.8158E-01   9.7275E+00  0.000E+00  0.000E+00  0.000E+00  1.07154E+03  6.315E-01  1.000E+01  5.000E-02  1.211E+00
   1    6    8     4     3    9.7275E+00  1.2689E-01   9.6006E+00  0.000E+00  0.000E+00  0.000E+00  1.06381E+03  6.256E-01  1.000E+01  3.500E-02  1.209E+00
   1    6    8     5     1    1.0432E+01  2.2686E-01   1.0205E+01  0.000E+00  0.000E+00  0.000E+00  1.05868E+03  6.790E-01  1.542E+01  6.166E-02  1.226E+00
   1    7    7     5     2    1.0205E+01  2.7894E-01   9.9265E+00  0.000E+00  0.000E+00  0.000E+00  1.05417E+03  6.732E-01  1.519E+01  7.594E-02  1.224E+00
   1    8    7     5     3    9.9265E+00  1.9221E-01   9.7343E+00  0.000E+00  0.000E+00  0.000E+00  1.04992E+03  6.676E-01  1.497E+01  5.241E-02  1.223E+00
   1    8    6     5     4    9.7343E+00  1.3577E-01   9.5985E+00  0.000E+00  0.000E+00  0.000E+00  1.04691E+03  6.637E-01  1.482E+01  3.706E-02  1.221E+00
   1    9    6     6     1    1.4086E+01  2.3167E-01   1.3855E+01  0.000E+00  0.000E+00  0.000E+00  1.04359E+03  8.612E-01  1.200E+01  6.000E-02  1.287E+00
   1   10    7     6     2    1.3855E+01  2.3116E-01   1.3624E+01  0.000E+00  0.000E+00  0.000E+00  1.03903E+03  8.526E-01  1.200E+01  6.000E-02  1.284E+00
   1   11    7     6     3    1.3624E+01  2.3064E-01   1.3393E+01  0.000E+00  0.000E+00  0.000E+00  1.03448E+03  8.440E-01  1.200E+01  6.000E-02  1.281E+00
   1   12    7     6     4    1.3393E+01  2.3012E-01   1.3163E+01  0.000E+00  0.000E+00  0.000E+00  1.02993E+03  8.353E-01  1.200E+01  6.000E-02  1.278E+00
   1   13    7     6     5    1.3163E+01 -2.0977E-02   1.3184E+01  0.000E+00  0.000E+00  0.000E+00  1.02674E+03  8.314E-01  1.200E+01  2.400E-01 -2.913E-02
   1   14    9     7     1    1.5000E+02  1.3658E+00   1.4863E+02  0.000E+00  0.000E+00  0.000E+00  1.03987E+03  2.288E+00  5.529E+01  5.593E-01  8.140E-01
   1   13    8     7     2    1.4863E+02  1.9203E+00   1.4671E+02  0.000E+00  0.000E+00  0.000E+00  1.03478E+03  2.279E+00  5.526E+01  6.148E-01  1.041E+00
   1   13    7     7     3    1.4671E+02  1.5976E+00   1.4512E+02  0.000E+00  0.000E+00  0.000E+00  1.02969E+03  2.270E+00  5.521E+01  5.584E-01  9.537E-01
   1   13    6     8     1    1.5830E+02  9.7214E-01   1.5733E+02  0.000E+00  0.000E+00  0.000E+00  1.02475E+03  2.871E+00  4.163E+01  4.242E-01  7.639E-01
   1   13    5     8     2    1.5733E+02  2.2507E-01   1.5710E+02  0.000E+00  0.000E+00  0.000E+00  1.01849E+03  2.867E+00  4.157E+01  4.236E-01  1.771E-01
   1   13    4     8     3    1.5710E+02 -2.2709E+00   1.5937E+02  0.000E+00  0.000E+00  0.000E+00  1.01225E+03  2.874E+00  4.167E+01  4.246E+00 -1.783E-01
   1   13    3     8     4    1.5937E+02 -3.5514E+00   1.6293E+02  0.000E+00  0.000E+00  0.000E+00  1.00602E+03  2.894E+00  4.196E+01  4.276E+00 -2.769E-01
   1   13    2     8     5    1.6293E+02 -2.5395E+00   1.6546E+02  0.000E+00  0.000E+00  0.000E+00  9.99789E+02  2.914E+00  4.225E+01  4.306E+00 -1.966E-01
   1   13    1     8     6    1.6546E+02 -1.9547E+00   1.6742E+02  0.000E+00  0.000E+00  0.000E+00  9.94804E+02  2.929E+00  4.247E+01  2.597E+00 -2.509E-01
   1    8    6     9     1    0.0000E+00  0.0000E+00   0.0000E+00  0.000E+00  0.000E+00  0.000E+00  1.07875E+03  0.000E+00  4.000E+00  0.000E+00  1.000E+00
   1    8    5     9     2    0.0000E+00  0.0000E+00   0.0000E+00  0.000E+00  0.000E+00  0.000E+00  1.07825E+03  0.000E+00  4.000E+00  0.000E+00  1.000E+00





UNSATURATED ZONE PACKAGE VOLUMETRIC BUDGET FOR  TIME STEP    30 STRESS PERIOD    2
  ------------------------------------------------------------------------------



     CUMULATIVE VOLUMES      L**3       RATES FOR THIS TIME STEP      L**3/T
     ------------------                 ------------------------

           IN:                                      IN:
           ---                                      ---
        INFILTRATION =     2302148.8727          INFILTRATION =           0.8475

          OUT:                                     OUT:
          ----                                     ----
              UZF ET =     1972485.7128                UZF ET =           0.7500
        UZF RECHARGE =       73224.0000          UZF RECHARGE =       0.0000E+00

            IN - OUT =      256439.1600              IN - OUT =       9.7500E-02

          STORAGE:                                 STORAGE:
          --------                                 --------
      STORAGE CHANGE =      256439.1819        STORAGE CHANGE =       9.7500E-02

 PERCENT DISCREPANCY IS DIFFERENCE BETWEEN IN-OUT MINUS CHANGE IN STORAGE
 DIVIDED BY THE AVERAGE OF IN AND OUT TIMES 100

 PERCENT DISCREPANCY =          -0.00     PERCENT DISCREPANCY =           0.00






1
  VOLUMETRIC BUDGET FOR AGRICULTURAL FIELDS AT  END OF TIME STEP   30, STRESS PERIOD   2
  ------------------------------------------------------------------------------

     CUMULATIVE VOLUMES      L**3       RATES FOR THIS TIME STEP      L**3/T
     ------------------                 ------------------------

           IN:                                      IN:
           ---                                      ---
               AG WELLS  =           0.0000                 AG WELLS  =           0.0000
      DIVERSION SEGMENTS =           0.0000        DIVERSION SEGMENTS =           0.0000
           GW IRRIGATION =           0.0000             GW IRRIGATION =           0.0000
           SW IRRIGATION =           0.0000             SW IRRIGATION =           0.0000
        SYSTEM LOSSES GW =           0.0000          SYSTEM LOSSES GW =           0.0000
        SYSTEM LOSSES SW =           0.0000          SYSTEM LOSSES SW =           0.0000

                TOTAL IN =           0.0000                  TOTAL IN =           0.0000

          OUT:                                     OUT:
          ----                                     ----
               AG WELLS  =           0.0000                 AG WELLS  =           0.0000
      DIVERSION SEGMENTS =           0.0000        DIVERSION SEGMENTS =           0.0000
           GW IRRIGATION =           0.0000             GW IRRIGATION =           0.0000
           SW IRRIGATION =           0.0000             SW IRRIGATION =           0.0000
        SYSTEM LOSSES GW =           0.0000          SYSTEM LOSSES GW =           0.0000
        SYSTEM LOSSES SW =           0.0000          SYSTEM LOSSES SW =           0.0000

               TOTAL OUT =           0.0000                 TOTAL OUT =           0.0000

                IN - OUT =           0.0000                  IN - OUT =           0.0000

     PERCENT DISCREPANCY =           0.00         PERCENT DISCREPANCY =           0.00



1
  VOLUMETRIC BUDGET FOR ENTIRE MODEL AT END OF TIME STEP   30, STRESS PERIOD   2
  ------------------------------------------------------------------------------

     CUMULATIVE VOLUMES      L**3       RATES FOR THIS TIME STEP      L**3/T
     ------------------                 ------------------------

           IN:                                      IN:
           ---                                      ---
             STORAGE     =     1698293.2500               STORAGE     =           0.5858
       CONSTANT HEAD     =           0.0000         CONSTANT HEAD     =           0.0000
     HEAD DEP BOUNDS     =      781723.8750       HEAD DEP BOUNDS     =           0.2878
      STREAM LEAKAGE     =    30218964.0000        STREAM LEAKAGE     =          11.1681
        UZF RECHARGE     =       73223.9531          UZF RECHARGE     =           0.0000
               GW ET     =           0.0000                 GW ET     =           0.0000
     SURFACE LEAKAGE     =           0.0000       SURFACE LEAKAGE     =           0.0000
           AG WELLS      =           0.0000             AG WELLS      =           0.0000

                TOTAL IN =    32772204.0000                  TOTAL IN =          12.0417

          OUT:                                     OUT:
          ----                                     ----
             STORAGE     =     4124340.2500               STORAGE     =           1.4173
       CONSTANT HEAD     =           0.0000         CONSTANT HEAD     =           0.0000
     HEAD DEP BOUNDS     =      779352.1875       HEAD DEP BOUNDS     =           0.2872
      STREAM LEAKAGE     =    27869200.0000        STREAM LEAKAGE     =          10.3374
        UZF RECHARGE     =           0.0000          UZF RECHARGE     =           0.0000
               GW ET     =           0.0000                 GW ET     =           0.0000
     SURFACE LEAKAGE     =           0.0000       SURFACE LEAKAGE     =           0.0000
           AG WELLS      =           0.0000             AG WELLS      =           0.0000

               TOTAL OUT =    32772892.0000                 TOTAL OUT =          12.0419

                IN - OUT =        -688.0000                  IN - OUT =      -2.3460E-04

     PERCENT DISCREPANCY =          -0.00         PERCENT DISCREPANCY =          -0.00






         TIME SUMMARY AT END OF TIME STEP   30 IN STRESS PERIOD    2
                    SECONDS     MINUTES      HOURS       DAYS        YEARS
                    -----------------------------------------------------------
   TIME STEP LENGTH  87667.      1461.1      24.352      1.0147     2.77799E-03
 STRESS PERIOD TIME 2.63000E+06  43833.      730.56      30.440     8.33397E-02
         TOTAL TIME 2.71640E+06  45273.      754.56      31.440     8.60775E-02
1
1
                            STRESS PERIOD NO.    3, LENGTH =   2630000.    
                            -----------------------------------------------

                              NUMBER OF TIME STEPS =    30

                               MULTIPLIER FOR DELT =     1.000

                            INITIAL TIME STEP SIZE =   87666.66    

 REUSING NON-PARAMETER GHB CELLS FROM LAST STRESS PERIOD

      2 GHB CELLS

 REUSING STREAM SEGMENT DATA FROM LAST STRESS PERIOD



            AREAL INFILTRATION RATE
 READING ON UNIT   19 WITH FORMAT: (FREE)              

            1           2           3           4           5           6           7           8           9          10
 ........................................................................................................................
   1   1.0000E-10  2.0000E-10   0.000       0.000       0.000       0.000       0.000       0.000       0.000       0.000    
   2   2.0000E-10  1.0000E-10  2.0000E-10   0.000       0.000      8.0000E-10  8.0000E-10  5.0000E-10   0.000       0.000    
   3    0.000      5.0000E-10  1.0000E-10  1.0000E-10  8.0000E-10  8.0000E-10  5.0000E-10  5.0000E-10   0.000       0.000    
   4   8.0000E-10  5.0000E-10  1.0000E-10  1.0000E-10  1.0000E-10  1.0000E-10  1.0000E-10  1.0000E-10  2.0000E-10   0.000    
   5   8.0000E-10  5.0000E-10  1.0000E-10  1.0000E-10  1.0000E-10  1.0000E-10  1.0000E-10  1.0000E-10  1.0000E-10  1.0000E-10
   6   8.0000E-10  5.0000E-10  5.0000E-10  2.0000E-10  2.0000E-10  1.0000E-10  1.0000E-10  1.0000E-10  1.0000E-10  5.0000E-10
   7   8.0000E-10  5.0000E-10  5.0000E-10  2.0000E-10  2.0000E-10  1.0000E-10  1.0000E-10  2.0000E-10  2.0000E-10   0.000    
   8    0.000      5.0000E-10  5.0000E-10  2.0000E-10  2.0000E-10  1.0000E-10  1.0000E-10  2.0000E-10  5.0000E-10   0.000    
   9    0.000      5.0000E-10  5.0000E-10  2.0000E-10  2.0000E-10  1.0000E-10  1.0000E-10  2.0000E-10  5.0000E-10   0.000    
  10    0.000      5.0000E-10  5.0000E-10  2.0000E-10  2.0000E-10  1.0000E-10  1.0000E-10  2.0000E-10  5.0000E-10  8.0000E-10
  11    0.000      1.0000E-10  1.0000E-10  1.0000E-10  1.0000E-10  1.0000E-10  1.0000E-10  2.0000E-10  5.0000E-10   0.000    
  12   1.0000E-10  1.0000E-10  1.0000E-10  1.0000E-10  1.0000E-10  1.0000E-10  1.0000E-10  1.0000E-10  2.0000E-10   0.000    
  13   1.0000E-10  1.0000E-10  2.0000E-10  2.0000E-10  2.0000E-10  2.0000E-10  2.0000E-10  1.0000E-10  1.0000E-10   0.000    
  14    0.000      2.0000E-10  5.0000E-10  5.0000E-10  5.0000E-10  5.0000E-10  5.0000E-10  2.0000E-10  1.0000E-10   0.000    
  15    0.000       0.000      8.0000E-10  8.0000E-10  8.0000E-10  8.0000E-10   0.000       0.000       0.000       0.000    

                  ET RATE =  5.000000E-10

 USING ET EXTINCTION DEPTH FROM PREVIOUS STRESS PERIOD. CURRENT PERIOD IS:       3

 USING EXTINCTION WATER CONTENT FROM PREVIOUS STRESS PERIOD. CURRENT PERIOD IS:       3

 USING AIR ENTRY PRESSURE FROM PREVIOUS STRESS PERIOD. CURRENT PERIOD IS:       3

 USING ROOT PRESSURE HEAD FROM PREVIOUS STRESS PERIOD. CURRENT PERIOD IS:       3

 USING ROOT ACTIVITY FROM PREVIOUS STRESS PERIOD. CURRENT PERIOD IS:       3

 PROCESSING AG STRESS PERIOD DATA

 READING AG STRESS PERIOD DATA

 READING IRRIGATION SEGMENT

 READING IRRIGATION WELL

 READING SUPPLEMENTAL WELL

 END PROCESSING AG STRESS PERIOD DATA OPTIONS
 
 SOLVING FOR HEAD 
                                                   Max.-Head-Change                         Max.-Flux-Residual
  Residual-Control   Outer-Iter.   Inner-Iter.     Column Row Layer    Maximum-Head-Change  Column Row Layer    Maximum-Flux-Residual          L2-NORM 
          0                 1           2             2    2     1       0.2525011357E-02       2    2    1         0.1319005112E+00      0.4039561040E+00
          0                 2           2             2    2     1      -0.2456150129E-03       2    2    1        -0.1319006855E-01      0.4181694327E-01
          0                 3           1             2    2     1       0.1672546936E-04       2    2    1         0.9233050379E-03      0.2906724711E-02

    ------------------------------------------------
       NWT REQUIRED            3 OUTER ITERATIONS 
       AND A TOTAL OF          5 INNER ITERATIONS.
    ------------------------------------------------

 NO OUTPUT CONTROL FOR STRESS PERIOD    3   TIME STEP    1
 
 SOLVING FOR HEAD 
                                                   Max.-Head-Change                         Max.-Flux-Residual
  Residual-Control   Outer-Iter.   Inner-Iter.     Column Row Layer    Maximum-Head-Change  Column Row Layer    Maximum-Flux-Residual          L2-NORM 
          0                 1           2             2    2     1       0.3324231131E-02       2    2    1         0.1736614038E+00      0.5146754142E+00
          0                 2           2             2    2     1      -0.3233575028E-03       2    2    1        -0.1736617106E-01      0.5102024440E-01
          0                 3           1             2    2     1       0.2201944266E-04       2    2    1         0.1215632199E-02      0.3530081504E-02

    ------------------------------------------------
       NWT REQUIRED            3 OUTER ITERATIONS 
       AND A TOTAL OF          5 INNER ITERATIONS.
    ------------------------------------------------

 NO OUTPUT CONTROL FOR STRESS PERIOD    3   TIME STEP    2
 
 SOLVING FOR HEAD 
                                                   Max.-Head-Change                         Max.-Flux-Residual
  Residual-Control   Outer-Iter.   Inner-Iter.     Column Row Layer    Maximum-Head-Change  Column Row Layer    Maximum-Flux-Residual          L2-NORM 
          0                 1           2             2    2     1       0.3301480467E-02       2    2    1         0.1724651001E+00      0.4998439178E+00
          0                 2           2             2    2     1      -0.3211444747E-03       2    2    1        -0.1724654009E-01      0.4958929944E-01
          0                 3           1             2    2     1       0.2186874379E-04       2    2    1         0.1207258049E-02      0.3434935461E-02

    ------------------------------------------------
       NWT REQUIRED            3 OUTER ITERATIONS 
       AND A TOTAL OF          5 INNER ITERATIONS.
    ------------------------------------------------

 NO OUTPUT CONTROL FOR STRESS PERIOD    3   TIME STEP    3
 
 SOLVING FOR HEAD 
                                                   Max.-Head-Change                         Max.-Flux-Residual
  Residual-Control   Outer-Iter.   Inner-Iter.     Column Row Layer    Maximum-Head-Change  Column Row Layer    Maximum-Flux-Residual          L2-NORM 
          0                 1           2             2    2     1       0.3279131818E-02       2    2    1         0.1712899373E+00      0.4865714186E+00
          0                 2           2             2    2     1      -0.3189705518E-03       2    2    1        -0.1712902324E-01      0.4830887629E-01
          0                 3           1             2    2     1       0.2172070774E-04       2    2    1         0.1199031861E-02      0.3349499608E-02

    ------------------------------------------------
       NWT REQUIRED            3 OUTER ITERATIONS 
       AND A TOTAL OF          5 INNER ITERATIONS.
    ------------------------------------------------

 NO OUTPUT CONTROL FOR STRESS PERIOD    3   TIME STEP    4
 
 SOLVING FOR HEAD 
                                                   Max.-Head-Change                         Max.-Flux-Residual
  Residual-Control   Outer-Iter.   Inner-Iter.     Column Row Layer    Maximum-Head-Change  Column Row Layer    Maximum-Flux-Residual          L2-NORM 
          0                 1           2             2    2     1       0.3257010121E-02       2    2    1         0.1701267478E+00      0.4746967975E+00
          0                 2           2             2    2     1      -0.3168187054E-03       2    2    1        -0.1701270371E-01      0.4716328635E-01
          0                 3           1             2    2     1       0.2157417503E-04       2    2    1         0.1190889507E-02      0.3270890237E-02

    ------------------------------------------------
       NWT REQUIRED            3 OUTER ITERATIONS 
       AND A TOTAL OF          5 INNER ITERATIONS.
    ------------------------------------------------

 NO OUTPUT CONTROL FOR STRESS PERIOD    3   TIME STEP    5
 
 SOLVING FOR HEAD 
                                                   Max.-Head-Change                         Max.-Flux-Residual
  Residual-Control   Outer-Iter.   Inner-Iter.     Column Row Layer    Maximum-Head-Change  Column Row Layer    Maximum-Flux-Residual          L2-NORM 
          0                 1           2             2    2     1       0.3235280851E-02       2    2    1         0.1689841965E+00      0.4640265425E+00
          0                 2           2             2    2     1      -0.3147050320E-03       2    2    1        -0.1689844808E-01      0.4613312208E-01
          0                 3           1             2    2     1       0.2143024171E-04       2    2    1         0.1182891598E-02      0.3204696499E-02

    ------------------------------------------------
       NWT REQUIRED            3 OUTER ITERATIONS 
       AND A TOTAL OF          5 INNER ITERATIONS.
    ------------------------------------------------

 NO OUTPUT CONTROL FOR STRESS PERIOD    3   TIME STEP    6
 
 SOLVING FOR HEAD 
                                                   Max.-Head-Change                         Max.-Flux-Residual
  Residual-Control   Outer-Iter.   Inner-Iter.     Column Row Layer    Maximum-Head-Change  Column Row Layer    Maximum-Flux-Residual          L2-NORM 
          0                 1           2             2    2     1       0.3213768742E-02       2    2    1         0.1678531209E+00      0.4544395675E+00
          0                 2           2             2    2     1      -0.3126124822E-03       2    2    1        -0.1678533996E-01      0.4520717740E-01
          0                 3           1             2    2     1       0.2128774736E-04       2    2    1         0.1174974052E-02      0.3142849220E-02

    ------------------------------------------------
       NWT REQUIRED            3 OUTER ITERATIONS 
       AND A TOTAL OF          5 INNER ITERATIONS.
    ------------------------------------------------

 NO OUTPUT CONTROL FOR STRESS PERIOD    3   TIME STEP    7
 
 SOLVING FOR HEAD 
                                                   Max.-Head-Change                         Max.-Flux-Residual
  Residual-Control   Outer-Iter.   Inner-Iter.     Column Row Layer    Maximum-Head-Change  Column Row Layer    Maximum-Flux-Residual          L2-NORM 
          0                 1           2             2    2     1       0.3192554582E-02       2    2    1         0.1667377406E+00      0.4457937575E+00
          0                 2           2             2    2     1      -0.3105489156E-03       2    2    1        -0.1667380143E-01      0.4437312582E-01
          0                 3           1             2    2     1       0.2114722592E-04       2    2    1         0.1167166361E-02      0.3087989836E-02

    ------------------------------------------------
       NWT REQUIRED            3 OUTER ITERATIONS 
       AND A TOTAL OF          5 INNER ITERATIONS.
    ------------------------------------------------

 NO OUTPUT CONTROL FOR STRESS PERIOD    3   TIME STEP    8
 
 SOLVING FOR HEAD 
                                                   Max.-Head-Change                         Max.-Flux-Residual
  Residual-Control   Outer-Iter.   Inner-Iter.     Column Row Layer    Maximum-Head-Change  Column Row Layer    Maximum-Flux-Residual          L2-NORM 
          0                 1           2             2    2     1       0.3171548839E-02       2    2    1         0.1656333726E+00      0.4379820131E+00
          0                 2           2             2    2     1      -0.3085056218E-03       2    2    1        -0.1656336413E-01      0.4361531313E-01
          0                 3           1             2    2     1       0.2100808546E-04       2    2    1         0.1159435746E-02      0.3036168713E-02

    ------------------------------------------------
       NWT REQUIRED            3 OUTER ITERATIONS 
       AND A TOTAL OF          5 INNER ITERATIONS.
    ------------------------------------------------

 NO OUTPUT CONTROL FOR STRESS PERIOD    3   TIME STEP    9
 
 SOLVING FOR HEAD 
                                                   Max.-Head-Change                         Max.-Flux-Residual
  Residual-Control   Outer-Iter.   Inner-Iter.     Column Row Layer    Maximum-Head-Change  Column Row Layer    Maximum-Flux-Residual          L2-NORM 
          0                 1           2             2    2     1       0.3150918025E-02       2    2    1         0.1645486827E+00      0.4309014473E+00
          0                 2           2             2    2     1      -0.3064987986E-03       2    2    1        -0.1645489464E-01      0.4292970047E-01
          0                 3           1             2    2     1       0.2087142819E-04       2    2    1         0.1151842872E-02      0.2990345713E-02

    ------------------------------------------------
       NWT REQUIRED            3 OUTER ITERATIONS 
       AND A TOTAL OF          5 INNER ITERATIONS.
    ------------------------------------------------

 NO OUTPUT CONTROL FOR STRESS PERIOD    3   TIME STEP   10
 
 SOLVING FOR HEAD 
                                                   Max.-Head-Change                         Max.-Flux-Residual
  Residual-Control   Outer-Iter.   Inner-Iter.     Column Row Layer    Maximum-Head-Change  Column Row Layer    Maximum-Flux-Residual          L2-NORM 
          0                 1           2             2    2     1       0.3130486817E-02       2    2    1         0.1634745604E+00      0.4244596632E+00
          0                 2           2             2    2     1      -0.3045113916E-03       2    2    1        -0.1634748192E-01      0.4230497152E-01
          0                 3           1             2    2     1       0.2073609344E-04       2    2    1         0.1144323989E-02      0.2948688901E-02

    ------------------------------------------------
       NWT REQUIRED            3 OUTER ITERATIONS 
       AND A TOTAL OF          5 INNER ITERATIONS.
    ------------------------------------------------

 NO OUTPUT CONTROL FOR STRESS PERIOD    3   TIME STEP   11
 
 SOLVING FOR HEAD 
                                                   Max.-Head-Change                         Max.-Flux-Residual
  Residual-Control   Outer-Iter.   Inner-Iter.     Column Row Layer    Maximum-Head-Change  Column Row Layer    Maximum-Flux-Residual          L2-NORM 
          0                 1           2             2    2     1       0.3110421577E-02       2    2    1         0.1624196598E+00      0.4185889141E+00
          0                 2           2             2    2     1      -0.3025595840E-03       2    2    1        -0.1624199138E-01      0.4173522698E-01
          0                 3           1             2    2     1       0.2060318246E-04       2    2    1         0.1136939658E-02      0.2910188975E-02

    ------------------------------------------------
       NWT REQUIRED            3 OUTER ITERATIONS 
       AND A TOTAL OF          5 INNER ITERATIONS.
    ------------------------------------------------

 NO OUTPUT CONTROL FOR STRESS PERIOD    3   TIME STEP   12
 
 SOLVING FOR HEAD 
                                                   Max.-Head-Change                         Max.-Flux-Residual
  Residual-Control   Outer-Iter.   Inner-Iter.     Column Row Layer    Maximum-Head-Change  Column Row Layer    Maximum-Flux-Residual          L2-NORM 
          0                 1           2             2    2     1       0.3090547437E-02       2    2    1         0.1613748618E+00      0.4132170528E+00
          0                 2           2             2    2     1      -0.3006263653E-03       2    2    1        -0.1613751113E-01      0.4121296719E-01
          0                 3           1             2    2     1       0.2047153721E-04       2    2    1         0.1129626030E-02      0.2874981966E-02

    ------------------------------------------------
       NWT REQUIRED            3 OUTER ITERATIONS 
       AND A TOTAL OF          5 INNER ITERATIONS.
    ------------------------------------------------

 NO OUTPUT CONTROL FOR STRESS PERIOD    3   TIME STEP   13
 
 SOLVING FOR HEAD 
                                                   Max.-Head-Change                         Max.-Flux-Residual
  Residual-Control   Outer-Iter.   Inner-Iter.     Column Row Layer    Maximum-Head-Change  Column Row Layer    Maximum-Flux-Residual          L2-NORM 
          0                 1           2             2    2     1       0.3070945672E-02       2    2    1         0.1603444083E+00      0.4082878642E+00
          0                 2           2             2    2     1      -0.2987196410E-03       2    2    1        -0.1603446533E-01      0.4073316193E-01
          0                 3           1             2    2     1       0.2034169636E-04       2    2    1         0.1122412824E-02      0.2842122409E-02

    ------------------------------------------------
       NWT REQUIRED            3 OUTER ITERATIONS 
       AND A TOTAL OF          5 INNER ITERATIONS.
    ------------------------------------------------

 NO OUTPUT CONTROL FOR STRESS PERIOD    3   TIME STEP   14
 
 SOLVING FOR HEAD 
                                                   Max.-Head-Change                         Max.-Flux-Residual
  Residual-Control   Outer-Iter.   Inner-Iter.     Column Row Layer    Maximum-Head-Change  Column Row Layer    Maximum-Flux-Residual          L2-NORM 
          0                 1           2             2    2     1       0.3051611998E-02       2    2    1         0.1593280771E+00      0.4037432855E+00
          0                 2           2             2    2     1      -0.2968389952E-03       2    2    1        -0.1593283178E-01      0.4029055436E-01
          0                 3           1             2    2     1       0.2021363175E-04       2    2    1         0.1115298474E-02      0.2812665501E-02

    ------------------------------------------------
       NWT REQUIRED            3 OUTER ITERATIONS 
       AND A TOTAL OF          5 INNER ITERATIONS.
    ------------------------------------------------

 NO OUTPUT CONTROL FOR STRESS PERIOD    3   TIME STEP   15
 
 SOLVING FOR HEAD 
                                                   Max.-Head-Change                         Max.-Flux-Residual
  Residual-Control   Outer-Iter.   Inner-Iter.     Column Row Layer    Maximum-Head-Change  Column Row Layer    Maximum-Flux-Residual          L2-NORM 
          0                 1           2             2    2     1       0.3032542649E-02       2    2    1         0.1583256463E+00      0.3995411777E+00
          0                 2           2             2    2     1      -0.2949840610E-03       2    2    1        -0.1583258826E-01      0.3988016463E-01
          0                 3           1             2    2     1       0.2008731757E-04       2    2    1         0.1108281427E-02      0.2784963619E-02

    ------------------------------------------------
       NWT REQUIRED            3 OUTER ITERATIONS 
       AND A TOTAL OF          5 INNER ITERATIONS.
    ------------------------------------------------

 NO OUTPUT CONTROL FOR STRESS PERIOD    3   TIME STEP   16
 
 SOLVING FOR HEAD 
                                                   Max.-Head-Change                         Max.-Flux-Residual
  Residual-Control   Outer-Iter.   Inner-Iter.     Column Row Layer    Maximum-Head-Change  Column Row Layer    Maximum-Flux-Residual          L2-NORM 
          0                 1           2             2    2     1       0.3013648210E-02       2    2    1         0.1573324837E+00      0.3956471269E+00
          0                 2           2             2    2     1      -0.2931461416E-03       2    2    1        -0.1573327161E-01      0.3949936634E-01
          0                 3           1             2    2     1       0.1996216214E-04       2    2    1         0.1101329276E-02      0.2758858441E-02

    ------------------------------------------------
       NWT REQUIRED            3 OUTER ITERATIONS 
       AND A TOTAL OF          5 INNER ITERATIONS.
    ------------------------------------------------

 NO OUTPUT CONTROL FOR STRESS PERIOD    3   TIME STEP   17
 
 SOLVING FOR HEAD 
                                                   Max.-Head-Change                         Max.-Flux-Residual
  Residual-Control   Outer-Iter.   Inner-Iter.     Column Row Layer    Maximum-Head-Change  Column Row Layer    Maximum-Flux-Residual          L2-NORM 
          0                 1           2             2    2     1       0.2995086685E-02       2    2    1         0.1563567839E+00      0.3920195151E+00
          0                 2           2             2    2     1      -0.2913406047E-03       2    2    1        -0.1563570120E-01      0.3914490014E-01
          0                 3           1             2    2     1       0.1983921179E-04       2    2    1         0.1094499337E-02      0.2735070227E-02

    ------------------------------------------------
       NWT REQUIRED            3 OUTER ITERATIONS 
       AND A TOTAL OF          5 INNER ITERATIONS.
    ------------------------------------------------

 NO OUTPUT CONTROL FOR STRESS PERIOD    3   TIME STEP   18
 
 SOLVING FOR HEAD 
                                                   Max.-Head-Change                         Max.-Flux-Residual
  Residual-Control   Outer-Iter.   Inner-Iter.     Column Row Layer    Maximum-Head-Change  Column Row Layer    Maximum-Flux-Residual          L2-NORM 
          0                 1           2             2    2     1       0.2976701687E-02       2    2    1         0.1553904308E+00      0.3886479529E+00
          0                 2           2             2    2     1      -0.2895522397E-03       2    2    1        -0.1553906548E-01      0.3881409150E-01
          0                 3           1             2    2     1       0.1971743109E-04       2    2    1         0.1087734852E-02      0.2712477527E-02

    ------------------------------------------------
       NWT REQUIRED            3 OUTER ITERATIONS 
       AND A TOTAL OF          5 INNER ITERATIONS.
    ------------------------------------------------

 NO OUTPUT CONTROL FOR STRESS PERIOD    3   TIME STEP   19
 
 SOLVING FOR HEAD 
                                                   Max.-Head-Change                         Max.-Flux-Residual
  Residual-Control   Outer-Iter.   Inner-Iter.     Column Row Layer    Maximum-Head-Change  Column Row Layer    Maximum-Flux-Residual          L2-NORM 
          0                 1           2             2    2     1       0.2958565986E-02       2    2    1         0.1544371877E+00      0.3854777616E+00
          0                 2           2             2    2     1      -0.2877881247E-03       2    2    1        -0.1544374080E-01      0.3850192949E-01
          0                 3           1             2    2     1       0.1959730141E-04       2    2    1         0.1081062114E-02      0.2689673866E-02

    ------------------------------------------------
       NWT REQUIRED            3 OUTER ITERATIONS 
       AND A TOTAL OF          5 INNER ITERATIONS.
    ------------------------------------------------

 NO OUTPUT CONTROL FOR STRESS PERIOD    3   TIME STEP   20
 
 SOLVING FOR HEAD 
                                                   Max.-Head-Change                         Max.-Flux-Residual
  Residual-Control   Outer-Iter.   Inner-Iter.     Column Row Layer    Maximum-Head-Change  Column Row Layer    Maximum-Flux-Residual          L2-NORM 
          0                 1           2             2    2     1       0.2940675688E-02       2    2    1         0.1534968704E+00      0.3824967673E+00
          0                 2           2             2    2     1      -0.2860478810E-03       2    2    1        -0.1534970870E-01      0.3821053852E-01
          0                 3           1             2    2     1       0.1947879698E-04       2    2    1         0.1074479866E-02      0.2671363531E-02

    ------------------------------------------------
       NWT REQUIRED            3 OUTER ITERATIONS 
       AND A TOTAL OF          5 INNER ITERATIONS.
    ------------------------------------------------

 NO OUTPUT CONTROL FOR STRESS PERIOD    3   TIME STEP   21
 
 SOLVING FOR HEAD 
                                                   Max.-Head-Change                         Max.-Flux-Residual
  Residual-Control   Outer-Iter.   Inner-Iter.     Column Row Layer    Maximum-Head-Change  Column Row Layer    Maximum-Flux-Residual          L2-NORM 
          0                 1           2             2    2     1       0.2923027038E-02       2    2    1         0.1525692770E+00      0.3797026233E+00
          0                 2           2             2    2     1      -0.2843311427E-03       2    2    1        -0.1525694898E-01      0.3793538048E-01
          0                 3           1             2    2     1       0.1936189363E-04       2    2    1         0.1067986683E-02      0.2652299631E-02

    ------------------------------------------------
       NWT REQUIRED            3 OUTER ITERATIONS 
       AND A TOTAL OF          5 INNER ITERATIONS.
    ------------------------------------------------

 NO OUTPUT CONTROL FOR STRESS PERIOD    3   TIME STEP   22
 
 SOLVING FOR HEAD 
                                                   Max.-Head-Change                         Max.-Flux-Residual
  Residual-Control   Outer-Iter.   Inner-Iter.     Column Row Layer    Maximum-Head-Change  Column Row Layer    Maximum-Flux-Residual          L2-NORM 
          0                 1           2             2    2     1       0.2905615958E-02       2    2    1         0.1516542128E+00      0.3770550096E+00
          0                 2           2             2    2     1      -0.2826375138E-03       2    2    1        -0.1516544218E-01      0.3767414756E-01
          0                 3           1             2    2     1       0.1924656393E-04       2    2    1         0.1061581209E-02      0.2634458299E-02

    ------------------------------------------------
       NWT REQUIRED            3 OUTER ITERATIONS 
       AND A TOTAL OF          5 INNER ITERATIONS.
    ------------------------------------------------

 NO OUTPUT CONTROL FOR STRESS PERIOD    3   TIME STEP   23
 
 SOLVING FOR HEAD 
                                                   Max.-Head-Change                         Max.-Flux-Residual
  Residual-Control   Outer-Iter.   Inner-Iter.     Column Row Layer    Maximum-Head-Change  Column Row Layer    Maximum-Flux-Residual          L2-NORM 
          0                 1           2             2    2     1       0.2888354939E-02       2    2    1         0.1507470290E+00      0.3745454168E+00
          0                 2           2             2    2     1      -0.2809584821E-03       2    2    1        -0.1507472346E-01      0.3742728485E-01
          0                 3           1             2    2     1       0.1913222826E-04       2    2    1         0.1055230902E-02      0.2617520590E-02

    ------------------------------------------------
       NWT REQUIRED            3 OUTER ITERATIONS 
       AND A TOTAL OF          5 INNER ITERATIONS.
    ------------------------------------------------

 NO OUTPUT CONTROL FOR STRESS PERIOD    3   TIME STEP   24
 
 SOLVING FOR HEAD 
                                                   Max.-Head-Change                         Max.-Flux-Residual
  Residual-Control   Outer-Iter.   Inner-Iter.     Column Row Layer    Maximum-Head-Change  Column Row Layer    Maximum-Flux-Residual          L2-NORM 
          0                 1           2             2    2     1       0.2871410514E-02       2    2    1         0.1498565005E+00      0.3721681515E+00
          0                 2           2             2    2     1      -0.2793102462E-03       2    2    1        -0.1498567025E-01      0.3719261828E-01
          0                 3           1             2    2     1       0.1901998904E-04       2    2    1         0.1048997171E-02      0.2601223372E-02

    ------------------------------------------------
       NWT REQUIRED            3 OUTER ITERATIONS 
       AND A TOTAL OF          5 INNER ITERATIONS.
    ------------------------------------------------

 NO OUTPUT CONTROL FOR STRESS PERIOD    3   TIME STEP   25
 
 SOLVING FOR HEAD 
                                                   Max.-Head-Change                         Max.-Flux-Residual
  Residual-Control   Outer-Iter.   Inner-Iter.     Column Row Layer    Maximum-Head-Change  Column Row Layer    Maximum-Flux-Residual          L2-NORM 
          0                 1           2             2    2     1       0.2854608264E-02       2    2    1         0.1489735121E+00      0.3699009105E+00
          0                 2           2             2    2     1      -0.2776758406E-03       2    2    1        -0.1489737109E-01      0.3696829214E-01
          0                 3           1             2    2     1       0.1890869248E-04       2    2    1         0.1042816234E-02      0.2585727980E-02

    ------------------------------------------------
       NWT REQUIRED            3 OUTER ITERATIONS 
       AND A TOTAL OF          5 INNER ITERATIONS.
    ------------------------------------------------

 NO OUTPUT CONTROL FOR STRESS PERIOD    3   TIME STEP   26
 
 SOLVING FOR HEAD 
                                                   Max.-Head-Change                         Max.-Flux-Residual
  Residual-Control   Outer-Iter.   Inner-Iter.     Column Row Layer    Maximum-Head-Change  Column Row Layer    Maximum-Flux-Residual          L2-NORM 
          0                 1           2             2    2     1       0.2838115570E-02       2    2    1         0.1481067704E+00      0.3677400383E+00
          0                 2           2             2    2     1      -0.2760715463E-03       2    2    1        -0.1481069658E-01      0.3675480245E-01
          0                 3           1             2    2     1       0.1879944623E-04       2    2    1         0.1036749030E-02      0.2571036846E-02

    ------------------------------------------------
       NWT REQUIRED            3 OUTER ITERATIONS 
       AND A TOTAL OF          5 INNER ITERATIONS.
    ------------------------------------------------

 NO OUTPUT CONTROL FOR STRESS PERIOD    3   TIME STEP   27
 
 SOLVING FOR HEAD 
                                                   Max.-Head-Change                         Max.-Flux-Residual
  Residual-Control   Outer-Iter.   Inner-Iter.     Column Row Layer    Maximum-Head-Change  Column Row Layer    Maximum-Flux-Residual          L2-NORM 
          0                 1           2             2    2     1       0.2821758846E-02       2    2    1         0.1472472037E+00      0.3656790175E+00
          0                 2           2             2    2     1      -0.2744804784E-03       2    2    1        -0.1472473959E-01      0.3655086991E-01
          0                 3           1             2    2     1       0.1869110052E-04       2    2    1         0.1030732055E-02      0.2557093291E-02

    ------------------------------------------------
       NWT REQUIRED            3 OUTER ITERATIONS 
       AND A TOTAL OF          5 INNER ITERATIONS.
    ------------------------------------------------

 NO OUTPUT CONTROL FOR STRESS PERIOD    3   TIME STEP   28
 
 SOLVING FOR HEAD 
                                                   Max.-Head-Change                         Max.-Flux-Residual
  Residual-Control   Outer-Iter.   Inner-Iter.     Column Row Layer    Maximum-Head-Change  Column Row Layer    Maximum-Flux-Residual          L2-NORM 
          0                 1           2             2    2     1       0.2805619931E-02       2    2    1         0.1463991244E+00      0.3637082943E+00
          0                 2           2             2    2     1      -0.2729105967E-03       2    2    1        -0.1463993132E-01      0.3635570891E-01
          0                 3           1             2    2     1       0.1858419710E-04       2    2    1         0.1024795464E-02      0.2543539986E-02

    ------------------------------------------------
       NWT REQUIRED            3 OUTER ITERATIONS 
       AND A TOTAL OF          5 INNER ITERATIONS.
    ------------------------------------------------

 NO OUTPUT CONTROL FOR STRESS PERIOD    3   TIME STEP   29
 
 SOLVING FOR HEAD 
                                                   Max.-Head-Change                         Max.-Flux-Residual
  Residual-Control   Outer-Iter.   Inner-Iter.     Column Row Layer    Maximum-Head-Change  Column Row Layer    Maximum-Flux-Residual          L2-NORM 
          0                 1           2             4   13     1       0.4709136809E-02       4   13    1         0.2696369064E+00      0.6974167750E+00
          0                 2           2             2    2     1      -0.4535412924E-03       4   13    1        -0.2668102261E-01      0.6881940714E-01
          0                 3           1             2    2     1       0.3088447269E-04       4   13    1         0.1840059044E-02      0.4731509499E-02

    ------------------------------------------------
       NWT REQUIRED            3 OUTER ITERATIONS 
       AND A TOTAL OF          5 INNER ITERATIONS.
    ------------------------------------------------

 NO OUTPUT CONTROL FOR STRESS PERIOD    3   TIME STEP   30



 STREAM LISTING     PERIOD      3   STEP       30

 LAYER ROW COL. STREAM  RCH.  FLOW INTO     FLOW TO   FLOW OUT OF   OVRLND.     DIRECT     STREAM       STREAM     STREAM     STREAM   STREAMBED  STREAMBED
                SEG.NO.  NO.  STRM. RCH.    AQUIFER    STRM. RCH.    RUNOFF     PRECIP       ET          HEAD       DEPTH      WIDTH   CONDCTNC.   GRADIENT

   1    1    1     1     1    2.7188E+01  2.5503E-01   2.6933E+01  0.000E+00  0.000E+00  0.000E+00  1.09426E+03  1.210E+00  1.346E+01  6.058E-02  1.403E+00
   1    2    2     1     2    2.6933E+01  3.9447E-01   2.6539E+01  0.000E+00  0.000E+00  0.000E+00  1.08926E+03  1.205E+00  1.340E+01  9.380E-02  1.402E+00
   1    3    3     1     3    2.6539E+01  3.3594E-01   2.6203E+01  0.000E+00  0.000E+00  0.000E+00  1.08362E+03  1.200E+00  1.333E+01  7.998E-02  1.400E+00
   1    3    4     1     4    2.6203E+01  3.0895E-01   2.5894E+01  0.000E+00  0.000E+00  0.000E+00  1.07860E+03  1.196E+00  1.327E+01  7.364E-02  1.399E+00
   1    4    5     2     1    2.3894E+01  3.2529E-01   2.3568E+01  0.000E+00  0.000E+00  0.000E+00  1.07310E+03  1.170E+00  1.200E+01  7.800E-02  1.390E+00
   1    5    6     2     2    2.3568E+01  2.4971E-01   2.3319E+01  0.000E+00  0.000E+00  0.000E+00  1.06767E+03  1.162E+00  1.200E+01  6.000E-02  1.387E+00
   1    6    6     2     3    2.3319E+01  2.4927E-01   2.3069E+01  0.000E+00  0.000E+00  0.000E+00  1.06295E+03  1.154E+00  1.200E+01  6.000E-02  1.385E+00
   1    7    6     2     4    2.3069E+01  2.4882E-01   2.2821E+01  0.000E+00  0.000E+00  0.000E+00  1.05822E+03  1.147E+00  1.200E+01  6.000E-02  1.382E+00
   1    8    6     2     5    2.2821E+01  2.4837E-01   2.2572E+01  0.000E+00  0.000E+00  0.000E+00  1.05350E+03  1.140E+00  1.200E+01  6.000E-02  1.380E+00
   1    3    5     3     1    2.0000E+00  2.8252E-01   1.7175E+00  0.000E+00  0.000E+00  0.000E+00  1.07555E+03  1.909E+00  9.636E+00  7.227E-02  1.955E+00
   1    3    6     3     2    1.7175E+00  2.4905E-01   1.4684E+00  0.000E+00  0.000E+00  0.000E+00  1.07264E+03  1.727E+00  8.909E+00  6.682E-02  1.864E+00
   1    3    7     3     3    1.4684E+00  1.9718E-01   1.2712E+00  0.000E+00  0.000E+00  0.000E+00  1.06987E+03  1.555E+00  8.218E+00  5.547E-02  1.777E+00
   1    4    8     3     4    1.2712E+00  2.2567E-01   1.0456E+00  0.000E+00  0.000E+00  0.000E+00  1.06682E+03  1.364E+00  7.455E+00  6.709E-02  1.682E+00
   1    5    8     3     5    1.0456E+00  1.5790E-01   8.8768E-01  0.000E+00  0.000E+00  0.000E+00  1.06362E+03  1.164E+00  6.655E+00  4.991E-02  1.582E+00
   1    6    8     3     6    8.8768E-01  5.5980E-02   8.3170E-01  0.000E+00  0.000E+00  0.000E+00  1.06158E+03  1.036E+00  6.145E+00  1.844E-02  1.518E+00
   1    5   10     4     1    1.0000E+01  9.0919E-02   9.9091E+00  0.000E+00  0.000E+00  0.000E+00  1.07836E+03  6.368E-01  1.000E+01  2.500E-02  1.212E+00
   1    5    9     4     2    9.9091E+00  1.8158E-01   9.7275E+00  0.000E+00  0.000E+00  0.000E+00  1.07154E+03  6.315E-01  1.000E+01  5.000E-02  1.211E+00
   1    6    8     4     3    9.7275E+00  1.2689E-01   9.6006E+00  0.000E+00  0.000E+00  0.000E+00  1.06381E+03  6.256E-01  1.000E+01  3.500E-02  1.209E+00
   1    6    8     5     1    1.0432E+01  2.2686E-01   1.0205E+01  0.000E+00  0.000E+00  0.000E+00  1.05868E+03  6.790E-01  1.542E+01  6.166E-02  1.226E+00
   1    7    7     5     2    1.0205E+01  2.7894E-01   9.9265E+00  0.000E+00  0.000E+00  0.000E+00  1.05417E+03  6.732E-01  1.519E+01  7.594E-02  1.224E+00
   1    8    7     5     3    9.9265E+00  1.9221E-01   9.7343E+00  0.000E+00  0.000E+00  0.000E+00  1.04992E+03  6.676E-01  1.497E+01  5.241E-02  1.223E+00
   1    8    6     5     4    9.7343E+00  1.3577E-01   9.5985E+00  0.000E+00  0.000E+00  0.000E+00  1.04691E+03  6.637E-01  1.482E+01  3.706E-02  1.221E+00
   1    9    6     6     1    3.2171E+01  2.6502E-01   3.1906E+01  0.000E+00  0.000E+00  0.000E+00  1.04414E+03  1.417E+00  1.200E+01  6.000E-02  1.472E+00
   1   10    7     6     2    3.1906E+01  2.6460E-01   3.1641E+01  0.000E+00  0.000E+00  0.000E+00  1.03959E+03  1.410E+00  1.200E+01  6.000E-02  1.470E+00
   1   11    7     6     3    3.1641E+01  2.6418E-01   3.1377E+01  0.000E+00  0.000E+00  0.000E+00  1.03504E+03  1.403E+00  1.200E+01  6.000E-02  1.468E+00
   1   12    7     6     4    3.1377E+01  2.6375E-01   3.1113E+01  0.000E+00  0.000E+00  0.000E+00  1.03049E+03  1.396E+00  1.200E+01  6.000E-02  1.465E+00
   1   13    7     6     5    3.1113E+01  1.0995E-02   3.1102E+01  0.000E+00  0.000E+00  0.000E+00  1.02730E+03  1.392E+00  1.200E+01  2.400E-02  1.527E-01
   1   14    9     7     1    1.5000E+02  1.3665E+00   1.4863E+02  0.000E+00  0.000E+00  0.000E+00  1.03987E+03  2.288E+00  5.529E+01  5.593E-01  8.144E-01
   1   13    8     7     2    1.4863E+02  1.9191E+00   1.4671E+02  0.000E+00  0.000E+00  0.000E+00  1.03478E+03  2.279E+00  5.526E+01  6.148E-01  1.041E+00
   1   13    7     7     3    1.4671E+02  1.5891E+00   1.4513E+02  0.000E+00  0.000E+00  0.000E+00  1.02969E+03  2.270E+00  5.521E+01  5.584E-01  9.486E-01
   1   13    6     8     1    1.7623E+02  1.0561E+00   1.7517E+02  0.000E+00  0.000E+00  0.000E+00  1.02486E+03  2.989E+00  4.334E+01  4.416E-01  7.971E-01
   1   13    5     8     2    1.7517E+02  2.7870E-01   1.7489E+02  0.000E+00  0.000E+00  0.000E+00  1.01861E+03  2.985E+00  4.328E+01  4.410E-01  2.106E-01
   1   13    4     8     3    1.7489E+02 -1.9966E+00   1.7689E+02  0.000E+00  0.000E+00  0.000E+00  1.01237E+03  2.990E+00  4.336E+01  4.418E+00 -1.506E-01
   1   13    3     8     4    1.7689E+02 -3.3281E+00   1.8022E+02  0.000E+00  0.000E+00  0.000E+00  1.00613E+03  3.007E+00  4.360E+01  4.443E+00 -2.497E-01
   1   13    2     8     5    1.8022E+02 -2.3039E+00   1.8252E+02  0.000E+00  0.000E+00  0.000E+00  9.99900E+02  3.025E+00  4.386E+01  4.469E+00 -1.718E-01
   1   13    1     8     6    1.8252E+02 -1.8174E+00   1.8434E+02  0.000E+00  0.000E+00  0.000E+00  9.94913E+02  3.038E+00  4.405E+01  2.693E+00 -2.250E-01
   1    8    6     9     1    0.0000E+00  0.0000E+00   0.0000E+00  0.000E+00  0.000E+00  0.000E+00  1.07875E+03  0.000E+00  4.000E+00  0.000E+00  1.000E+00
   1    8    5     9     2    0.0000E+00  0.0000E+00   0.0000E+00  0.000E+00  0.000E+00  0.000E+00  1.07825E+03  0.000E+00  4.000E+00  0.000E+00  1.000E+00





UNSATURATED ZONE PACKAGE VOLUMETRIC BUDGET FOR  TIME STEP    30 STRESS PERIOD    3
  ------------------------------------------------------------------------------



     CUMULATIVE VOLUMES      L**3       RATES FOR THIS TIME STEP      L**3/T
     ------------------                 ------------------------

           IN:                                      IN:
           ---                                      ---
        INFILTRATION =     4531073.7455          INFILTRATION =           0.8475

          OUT:                                     OUT:
          ----                                     ----
              UZF ET =     3944985.5897                UZF ET =           0.7500
        UZF RECHARGE =       73224.0000          UZF RECHARGE =       0.0000E+00

            IN - OUT =      512864.1558              IN - OUT =       9.7500E-02

          STORAGE:                                 STORAGE:
          --------                                 --------
      STORAGE CHANGE =      512864.1946        STORAGE CHANGE =       9.7500E-02

 PERCENT DISCREPANCY IS DIFFERENCE BETWEEN IN-OUT MINUS CHANGE IN STORAGE
 DIVIDED BY THE AVERAGE OF IN AND OUT TIMES 100

 PERCENT DISCREPANCY =          -0.00     PERCENT DISCREPANCY =           0.00






1
  VOLUMETRIC BUDGET FOR AGRICULTURAL FIELDS AT  END OF TIME STEP   30, STRESS PERIOD   3
  ------------------------------------------------------------------------------

     CUMULATIVE VOLUMES      L**3       RATES FOR THIS TIME STEP      L**3/T
     ------------------                 ------------------------

           IN:                                      IN:
           ---                                      ---
               AG WELLS  =           0.0000                 AG WELLS  =           0.0000
      DIVERSION SEGMENTS =           0.0000        DIVERSION SEGMENTS =           0.0000
           GW IRRIGATION =           0.0000             GW IRRIGATION =           0.0000
           SW IRRIGATION =           0.0000             SW IRRIGATION =           0.0000
        SYSTEM LOSSES GW =           0.0000          SYSTEM LOSSES GW =           0.0000
        SYSTEM LOSSES SW =           0.0000          SYSTEM LOSSES SW =           0.0000

                TOTAL IN =           0.0000                  TOTAL IN =           0.0000

          OUT:                                     OUT:
          ----                                     ----
               AG WELLS  =           0.0000                 AG WELLS  =           0.0000
      DIVERSION SEGMENTS =           0.0000        DIVERSION SEGMENTS =           0.0000
           GW IRRIGATION =           0.0000             GW IRRIGATION =           0.0000
           SW IRRIGATION =           0.0000             SW IRRIGATION =           0.0000
        SYSTEM LOSSES GW =           0.0000          SYSTEM LOSSES GW =           0.0000
        SYSTEM LOSSES SW =           0.0000          SYSTEM LOSSES SW =           0.0000

               TOTAL OUT =           0.0000                 TOTAL OUT =           0.0000

                IN - OUT =           0.0000                  IN - OUT =           0.0000

     PERCENT DISCREPANCY =           0.00         PERCENT DISCREPANCY =           0.00



1
  VOLUMETRIC BUDGET FOR ENTIRE MODEL AT END OF TIME STEP   30, STRESS PERIOD   3
  ------------------------------------------------------------------------------

     CUMULATIVE VOLUMES      L**3       RATES FOR THIS TIME STEP      L**3/T
     ------------------                 ------------------------

           IN:                                      IN:
           ---                                      ---
             STORAGE     =     3101464.7500               STORAGE     =           0.4931
       CONSTANT HEAD     =           0.0000         CONSTANT HEAD     =           0.0000
     HEAD DEP BOUNDS     =     1538702.5000       HEAD DEP BOUNDS     =           0.2878
      STREAM LEAKAGE     =    60993756.0000        STREAM LEAKAGE     =          12.2952
        UZF RECHARGE     =       73223.9531          UZF RECHARGE     =           0.0000
               GW ET     =           0.0000                 GW ET     =           0.0000
     SURFACE LEAKAGE     =           0.0000       SURFACE LEAKAGE     =           0.0000
           AG WELLS      =           0.0000             AG WELLS      =           0.0000

                TOTAL IN =    65707148.0000                  TOTAL IN =          13.0762

          OUT:                                     OUT:
          ----                                     ----
             STORAGE     =     9831364.0000               STORAGE     =           3.3427
       CONSTANT HEAD     =           0.0000         CONSTANT HEAD     =           0.0000
     HEAD DEP BOUNDS     =     1536322.6250       HEAD DEP BOUNDS     =           0.2883
      STREAM LEAKAGE     =    54341368.0000        STREAM LEAKAGE     =           9.4460
        UZF RECHARGE     =           0.0000          UZF RECHARGE     =           0.0000
               GW ET     =           0.0000                 GW ET     =           0.0000
     SURFACE LEAKAGE     =           0.0000       SURFACE LEAKAGE     =           0.0000
           AG WELLS      =           0.0000             AG WELLS      =           0.0000

               TOTAL OUT =    65709056.0000                 TOTAL OUT =          13.0770

                IN - OUT =       -1908.0000                  IN - OUT =      -8.0872E-04

     PERCENT DISCREPANCY =          -0.00         PERCENT DISCREPANCY =          -0.01






         TIME SUMMARY AT END OF TIME STEP   30 IN STRESS PERIOD    3
                    SECONDS     MINUTES      HOURS       DAYS        YEARS
                    -----------------------------------------------------------
   TIME STEP LENGTH  87667.      1461.1      24.352      1.0147     2.77799E-03
 STRESS PERIOD TIME 2.63000E+06  43833.      730.56      30.440     8.33397E-02
         TOTAL TIME 5.34640E+06  89107.      1485.1      61.880     0.16942    
1
1
                            STRESS PERIOD NO.    4, LENGTH =   2630000.    
                            -----------------------------------------------

                              NUMBER OF TIME STEPS =    30

                               MULTIPLIER FOR DELT =     1.000

                            INITIAL TIME STEP SIZE =   87666.66    

 REUSING NON-PARAMETER GHB CELLS FROM LAST STRESS PERIOD

      2 GHB CELLS

 REUSING STREAM SEGMENT DATA FROM LAST STRESS PERIOD



            AREAL INFILTRATION RATE
 READING ON UNIT   19 WITH FORMAT: (FREE)              

            1           2           3           4           5           6           7           8           9          10
 ........................................................................................................................
   1   1.0000E-10  2.0000E-10   0.000       0.000       0.000       0.000       0.000       0.000       0.000       0.000    
   2   2.0000E-10  1.0000E-10  2.0000E-10   0.000       0.000      8.0000E-10  8.0000E-10  5.0000E-10   0.000       0.000    
   3    0.000      5.0000E-10  1.0000E-10  1.0000E-10  8.0000E-10  8.0000E-10  5.0000E-10  5.0000E-10   0.000       0.000    
   4   8.0000E-10  5.0000E-10  1.0000E-10  1.0000E-10  1.0000E-10  1.0000E-10  1.0000E-10  1.0000E-10  2.0000E-10   0.000    
   5   8.0000E-10  5.0000E-10  1.0000E-10  1.0000E-10  1.0000E-10  1.0000E-10  1.0000E-10  1.0000E-10  1.0000E-10  1.0000E-10
   6   8.0000E-10  5.0000E-10  5.0000E-10  2.0000E-10  2.0000E-10  1.0000E-10  1.0000E-10  1.0000E-10  1.0000E-10  5.0000E-10
   7   8.0000E-10  5.0000E-10  5.0000E-10  2.0000E-10  2.0000E-10  1.0000E-10  1.0000E-10  2.0000E-10  2.0000E-10   0.000    
   8    0.000      5.0000E-10  5.0000E-10  2.0000E-10  2.0000E-10  1.0000E-10  1.0000E-10  2.0000E-10  5.0000E-10   0.000    
   9    0.000      5.0000E-10  5.0000E-10  2.0000E-10  2.0000E-10  1.0000E-10  1.0000E-10  2.0000E-10  5.0000E-10   0.000    
  10    0.000      5.0000E-10  5.0000E-10  2.0000E-10  2.0000E-10  1.0000E-10  1.0000E-10  2.0000E-10  5.0000E-10  8.0000E-10
  11    0.000      1.0000E-10  1.0000E-10  1.0000E-10  1.0000E-10  1.0000E-10  1.0000E-10  2.0000E-10  5.0000E-10   0.000    
  12   1.0000E-10  1.0000E-10  1.0000E-10  1.0000E-10  1.0000E-10  1.0000E-10  1.0000E-10  1.0000E-10  2.0000E-10   0.000    
  13   1.0000E-10  1.0000E-10  2.0000E-10  2.0000E-10  2.0000E-10  2.0000E-10  2.0000E-10  1.0000E-10  1.0000E-10   0.000    
  14    0.000      2.0000E-10  5.0000E-10  5.0000E-10  5.0000E-10  5.0000E-10  5.0000E-10  2.0000E-10  1.0000E-10   0.000    
  15    0.000       0.000      8.0000E-10  8.0000E-10  8.0000E-10  8.0000E-10   0.000       0.000       0.000       0.000    

                  ET RATE =  5.000000E-10

 USING ET EXTINCTION DEPTH FROM PREVIOUS STRESS PERIOD. CURRENT PERIOD IS:       4

 USING EXTINCTION WATER CONTENT FROM PREVIOUS STRESS PERIOD. CURRENT PERIOD IS:       4

 USING AIR ENTRY PRESSURE FROM PREVIOUS STRESS PERIOD. CURRENT PERIOD IS:       4

 USING ROOT PRESSURE HEAD FROM PREVIOUS STRESS PERIOD. CURRENT PERIOD IS:       4

 USING ROOT ACTIVITY FROM PREVIOUS STRESS PERIOD. CURRENT PERIOD IS:       4

 PROCESSING AG STRESS PERIOD DATA

 READING AG STRESS PERIOD DATA

 READING IRRIGATION SEGMENT

 READING IRRIGATION WELL

 READING SUPPLEMENTAL WELL

 END PROCESSING AG STRESS PERIOD DATA OPTIONS
 
 SOLVING FOR HEAD 
                                                   Max.-Head-Change                         Max.-Flux-Residual
  Residual-Control   Outer-Iter.   Inner-Iter.     Column Row Layer    Maximum-Head-Change  Column Row Layer    Maximum-Flux-Residual          L2-NORM 
          0                 1           2             4   13     1       0.4940254060E-02       4   13    1         0.2828335364E+00      0.7295639810E+00
          0                 2           2             4   13     1      -0.4754262552E-03       4   13    1        -0.2798492593E-01      0.7196015433E-01
          0                 3           1             2    2     1       0.3214211446E-04       4   13    1         0.1930053891E-02      0.4944999565E-02

    ------------------------------------------------
       NWT REQUIRED            3 OUTER ITERATIONS 
       AND A TOTAL OF          5 INNER ITERATIONS.
    ------------------------------------------------

 NO OUTPUT CONTROL FOR STRESS PERIOD    4   TIME STEP    1
 
 SOLVING FOR HEAD 
                                                   Max.-Head-Change                         Max.-Flux-Residual
  Residual-Control   Outer-Iter.   Inner-Iter.     Column Row Layer    Maximum-Head-Change  Column Row Layer    Maximum-Flux-Residual          L2-NORM 
          0                 1           2             2    2     1       0.4822157583E-02       4   13    1         0.2567874525E+00      0.7019739491E+00
          0                 2           2             2    2     1      -0.4690653484E-03       4   13    1        -0.2540507498E-01      0.6931303985E-01
          0                 3           1             2    2     1       0.3194160249E-04       2    2    1         0.1762315083E-02      0.4770801368E-02

    ------------------------------------------------
       NWT REQUIRED            3 OUTER ITERATIONS 
       AND A TOTAL OF          5 INNER ITERATIONS.
    ------------------------------------------------

 NO OUTPUT CONTROL FOR STRESS PERIOD    4   TIME STEP    2
 
 SOLVING FOR HEAD 
                                                   Max.-Head-Change                         Max.-Flux-Residual
  Residual-Control   Outer-Iter.   Inner-Iter.     Column Row Layer    Maximum-Head-Change  Column Row Layer    Maximum-Flux-Residual          L2-NORM 
          0                 1           2             2    2     1       0.4792218275E-02       2    2    1         0.2501847211E+00      0.6774939908E+00
          0                 2           2             2    2     1      -0.4661530540E-03       2    2    1        -0.2501853140E-01      0.6696501458E-01
          0                 3           1             2    2     1       0.3174328639E-04       2    2    1         0.1751297400E-02      0.4614591764E-02

    ------------------------------------------------
       NWT REQUIRED            3 OUTER ITERATIONS 
       AND A TOTAL OF          5 INNER ITERATIONS.
    ------------------------------------------------

 NO OUTPUT CONTROL FOR STRESS PERIOD    4   TIME STEP    3
 
 SOLVING FOR HEAD 
                                                   Max.-Head-Change                         Max.-Flux-Residual
  Residual-Control   Outer-Iter.   Inner-Iter.     Column Row Layer    Maximum-Head-Change  Column Row Layer    Maximum-Flux-Residual          L2-NORM 
          0                 1           2             2    2     1       0.4762604938E-02       2    2    1         0.2486279630E+00      0.6557715732E+00
          0                 2           2             2    2     1      -0.4632724675E-03       2    2    1        -0.2486285453E-01      0.6488331357E-01
          0                 3           1             2    2     1       0.3154712850E-04       2    2    1         0.1740399999E-02      0.4477532787E-02

    ------------------------------------------------
       NWT REQUIRED            3 OUTER ITERATIONS 
       AND A TOTAL OF          5 INNER ITERATIONS.
    ------------------------------------------------

 NO OUTPUT CONTROL FOR STRESS PERIOD    4   TIME STEP    4
 
 SOLVING FOR HEAD 
                                                   Max.-Head-Change                         Max.-Flux-Residual
  Residual-Control   Outer-Iter.   Inner-Iter.     Column Row Layer    Maximum-Head-Change  Column Row Layer    Maximum-Flux-Residual          L2-NORM 
          0                 1           2             2    2     1       0.4733481710E-02       2    2    1         0.2470969832E+00      0.6364937839E+00
          0                 2           2             2    2     1      -0.4604395563E-03       2    2    1        -0.2470975552E-01      0.6303669227E-01
          0                 3           1             2    2     1       0.3135421848E-04       2    2    1         0.1729683089E-02      0.4356112170E-02

    ------------------------------------------------
       NWT REQUIRED            3 OUTER ITERATIONS 
       AND A TOTAL OF          5 INNER ITERATIONS.
    ------------------------------------------------

 NO OUTPUT CONTROL FOR STRESS PERIOD    4   TIME STEP    5
 
 SOLVING FOR HEAD 
                                                   Max.-Head-Change                         Max.-Flux-Residual
  Residual-Control   Outer-Iter.   Inner-Iter.     Column Row Layer    Maximum-Head-Change  Column Row Layer    Maximum-Flux-Residual          L2-NORM 
          0                 1           2             2    2     1       0.4704671723E-02       2    2    1         0.2455825377E+00      0.6193639979E+00
          0                 2           2             2    2     1      -0.4576371155E-03       2    2    1        -0.2455830999E-01      0.6139710657E-01
          0                 3           1             2    2     1       0.3116338291E-04       2    2    1         0.1719081920E-02      0.4248789101E-02

    ------------------------------------------------
       NWT REQUIRED            3 OUTER ITERATIONS 
       AND A TOTAL OF          5 INNER ITERATIONS.
    ------------------------------------------------

 NO OUTPUT CONTROL FOR STRESS PERIOD    4   TIME STEP    6
 
 SOLVING FOR HEAD 
                                                   Max.-Head-Change                         Max.-Flux-Residual
  Residual-Control   Outer-Iter.   Inner-Iter.     Column Row Layer    Maximum-Head-Change  Column Row Layer    Maximum-Flux-Residual          L2-NORM 
          0                 1           2             2    2     1       0.4676254724E-02       2    2    1         0.2440887720E+00      0.6041379785E+00
          0                 2           2             2    2     1      -0.4548729011E-03       2    2    1        -0.2440893243E-01      0.5993787656E-01
          0                 3           1             2    2     1       0.3097515027E-04       2    2    1         0.1708625487E-02      0.4151729320E-02

    ------------------------------------------------
       NWT REQUIRED            3 OUTER ITERATIONS 
       AND A TOTAL OF          5 INNER ITERATIONS.
    ------------------------------------------------

 NO OUTPUT CONTROL FOR STRESS PERIOD    4   TIME STEP    7
 
 SOLVING FOR HEAD 
                                                   Max.-Head-Change                         Max.-Flux-Residual
  Residual-Control   Outer-Iter.   Inner-Iter.     Column Row Layer    Maximum-Head-Change  Column Row Layer    Maximum-Flux-Residual          L2-NORM 
          0                 1           2             2    2     1       0.4648224625E-02       2    2    1         0.2426153824E+00      0.5905842825E+00
          0                 2           2             2    2     1      -0.4521463224E-03       2    2    1        -0.2426159251E-01      0.5864016789E-01
          0                 3           1             2    2     1       0.3078948032E-04       2    2    1         0.1698311696E-02      0.4066779503E-02

    ------------------------------------------------
       NWT REQUIRED            3 OUTER ITERATIONS 
       AND A TOTAL OF          5 INNER ITERATIONS.
    ------------------------------------------------

 NO OUTPUT CONTROL FOR STRESS PERIOD    4   TIME STEP    8
 
 SOLVING FOR HEAD 
                                                   Max.-Head-Change                         Max.-Flux-Residual
  Residual-Control   Outer-Iter.   Inner-Iter.     Column Row Layer    Maximum-Head-Change  Column Row Layer    Maximum-Flux-Residual          L2-NORM 
          0                 1           2             2    2     1       0.4620490796E-02       2    2    1         0.2411576139E+00      0.5784936515E+00
          0                 2           2             2    2     1      -0.4494485629E-03       2    2    1        -0.2411581473E-01      0.5748079373E-01
          0                 3           1             2    2     1       0.3060577287E-04       2    2    1         0.1688107249E-02      0.3990009837E-02

    ------------------------------------------------
       NWT REQUIRED            3 OUTER ITERATIONS 
       AND A TOTAL OF          5 INNER ITERATIONS.
    ------------------------------------------------

 NO OUTPUT CONTROL FOR STRESS PERIOD    4   TIME STEP    9
 
 SOLVING FOR HEAD 
                                                   Max.-Head-Change                         Max.-Flux-Residual
  Residual-Control   Outer-Iter.   Inner-Iter.     Column Row Layer    Maximum-Head-Change  Column Row Layer    Maximum-Flux-Residual          L2-NORM 
          0                 1           2             2    2     1       0.4593217499E-02       2    2    1         0.2397240851E+00      0.5676879250E+00
          0                 2           2             2    2     1      -0.4467956013E-03       2    2    1        -0.2397246095E-01      0.5644239693E-01
          0                 3           1             2    2     1       0.3042511661E-04       2    2    1         0.1678072501E-02      0.3919705557E-02

    ------------------------------------------------
       NWT REQUIRED            3 OUTER ITERATIONS 
       AND A TOTAL OF          5 INNER ITERATIONS.
    ------------------------------------------------

 NO OUTPUT CONTROL FOR STRESS PERIOD    4   TIME STEP   10
 
 SOLVING FOR HEAD 
                                                   Max.-Head-Change                         Max.-Flux-Residual
  Residual-Control   Outer-Iter.   Inner-Iter.     Column Row Layer    Maximum-Head-Change  Column Row Layer    Maximum-Flux-Residual          L2-NORM 
          0                 1           2             2    2     1       0.4566229086E-02       2    2    1         0.2383055556E+00      0.5580164441E+00
          0                 2           2             2    2     1      -0.4441703509E-03       2    2    1        -0.2383060709E-01      0.5551733647E-01
          0                 3           1             2    2     1       0.3024634664E-04       2    2    1         0.1668142728E-02      0.3860730970E-02

    ------------------------------------------------
       NWT REQUIRED            3 OUTER ITERATIONS 
       AND A TOTAL OF          5 INNER ITERATIONS.
    ------------------------------------------------

 NO OUTPUT CONTROL FOR STRESS PERIOD    4   TIME STEP   11
 
 SOLVING FOR HEAD 
                                                   Max.-Head-Change                         Max.-Flux-Residual
  Residual-Control   Outer-Iter.   Inner-Iter.     Column Row Layer    Maximum-Head-Change  Column Row Layer    Maximum-Flux-Residual          L2-NORM 
          0                 1           2             2    2     1       0.4539604724E-02       2    2    1         0.2369062365E+00      0.5493256300E+00
          0                 2           2             2    2     1      -0.4415805133E-03       2    2    1        -0.2369067432E-01      0.5468243130E-01
          0                 3           1             2    2     1       0.3006998813E-04       2    2    1         0.1658347432E-02      0.3805047756E-02

    ------------------------------------------------
       NWT REQUIRED            3 OUTER ITERATIONS 
       AND A TOTAL OF          5 INNER ITERATIONS.
    ------------------------------------------------

 NO OUTPUT CONTROL FOR STRESS PERIOD    4   TIME STEP   12
 
 SOLVING FOR HEAD 
                                                   Max.-Head-Change                         Max.-Flux-Residual
  Residual-Control   Outer-Iter.   Inner-Iter.     Column Row Layer    Maximum-Head-Change  Column Row Layer    Maximum-Flux-Residual          L2-NORM 
          0                 1           2             2    2     1       0.4513339485E-02       2    2    1         0.2355257930E+00      0.5415016453E+00
          0                 2           2             2    2     1      -0.4390256092E-03       2    2    1        -0.2355262914E-01      0.5393060692E-01
          0                 3           1             2    2     1       0.2989600890E-04       2    2    1         0.1648684272E-02      0.3755331928E-02

    ------------------------------------------------
       NWT REQUIRED            3 OUTER ITERATIONS 
       AND A TOTAL OF          5 INNER ITERATIONS.
    ------------------------------------------------

 NO OUTPUT CONTROL FOR STRESS PERIOD    4   TIME STEP   13
 
 SOLVING FOR HEAD 
                                                   Max.-Head-Change                         Max.-Flux-Residual
  Residual-Control   Outer-Iter.   Inner-Iter.     Column Row Layer    Maximum-Head-Change  Column Row Layer    Maximum-Flux-Residual          L2-NORM 
          0                 1           2             2    2     1       0.4487427826E-02       2    2    1         0.2341639697E+00      0.5344406390E+00
          0                 2           2             2    2     1      -0.4365050985E-03       2    2    1        -0.2341644594E-01      0.5325071536E-01
          0                 3           1             2    2     1       0.2972437179E-04       2    2    1         0.1639151456E-02      0.3710082794E-02

    ------------------------------------------------
       NWT REQUIRED            3 OUTER ITERATIONS 
       AND A TOTAL OF          5 INNER ITERATIONS.
    ------------------------------------------------

 NO OUTPUT CONTROL FOR STRESS PERIOD    4   TIME STEP   14
 
 SOLVING FOR HEAD 
                                                   Max.-Head-Change                         Max.-Flux-Residual
  Residual-Control   Outer-Iter.   Inner-Iter.     Column Row Layer    Maximum-Head-Change  Column Row Layer    Maximum-Flux-Residual          L2-NORM 
          0                 1           2             2    2     1       0.4461780033E-02       2    2    1         0.2328160390E+00      0.5280411374E+00
          0                 2           2             2    2     1      -0.4340102553E-03       2    2    1        -0.2328165206E-01      0.5263365072E-01
          0                 3           1             2    2     1       0.2955448250E-04       2    2    1         0.1629715893E-02      0.3668517790E-02

    ------------------------------------------------
       NWT REQUIRED            3 OUTER ITERATIONS 
       AND A TOTAL OF          5 INNER ITERATIONS.
    ------------------------------------------------

 NO OUTPUT CONTROL FOR STRESS PERIOD    4   TIME STEP   15
 
 SOLVING FOR HEAD 
                                                   Max.-Head-Change                         Max.-Flux-Residual
  Residual-Control   Outer-Iter.   Inner-Iter.     Column Row Layer    Maximum-Head-Change  Column Row Layer    Maximum-Flux-Residual          L2-NORM 
          0                 1           2             2    2     1       0.4436475633E-02       2    2    1         0.2314862295E+00      0.5222152298E+00
          0                 2           2             2    2     1      -0.4315488156E-03       2    2    1        -0.2314867034E-01      0.5207205197E-01
          0                 3           1             2    2     1       0.2938686765E-04       2    2    1         0.1620407179E-02      0.3631164256E-02

    ------------------------------------------------
       NWT REQUIRED            3 OUTER ITERATIONS 
       AND A TOTAL OF          5 INNER ITERATIONS.
    ------------------------------------------------

 NO OUTPUT CONTROL FOR STRESS PERIOD    4   TIME STEP   16
 
 SOLVING FOR HEAD 
                                                   Max.-Head-Change                         Max.-Flux-Residual
  Residual-Control   Outer-Iter.   Inner-Iter.     Column Row Layer    Maximum-Head-Change  Column Row Layer    Maximum-Flux-Residual          L2-NORM 
          0                 1           2             2    2     1       0.4411510040E-02       2    2    1         0.2301742244E+00      0.5168939270E+00
          0                 2           2             2    2     1      -0.4291203322E-03       2    2    1        -0.2301746904E-01      0.5155762869E-01
          0                 3           1             2    2     1       0.2922149717E-04       2    2    1         0.1611223097E-02      0.3597045539E-02

    ------------------------------------------------
       NWT REQUIRED            3 OUTER ITERATIONS 
       AND A TOTAL OF          5 INNER ITERATIONS.
    ------------------------------------------------

 NO OUTPUT CONTROL FOR STRESS PERIOD    4   TIME STEP   17
 
 SOLVING FOR HEAD 
                                                   Max.-Head-Change                         Max.-Flux-Residual
  Residual-Control   Outer-Iter.   Inner-Iter.     Column Row Layer    Maximum-Head-Change  Column Row Layer    Maximum-Flux-Residual          L2-NORM 
          0                 1           2             2    2     1       0.4386877703E-02       2    2    1         0.2288797862E+00      0.5120294248E+00
          0                 2           2             2    2     1      -0.4267242657E-03       2    2    1        -0.2288802445E-01      0.5108618150E-01
          0                 3           1             2    2     1       0.2905833367E-04       2    2    1         0.1602161971E-02      0.3565162153E-02

    ------------------------------------------------
       NWT REQUIRED            3 OUTER ITERATIONS 
       AND A TOTAL OF          5 INNER ITERATIONS.
    ------------------------------------------------

 NO OUTPUT CONTROL FOR STRESS PERIOD    4   TIME STEP   18
 
 SOLVING FOR HEAD 
                                                   Max.-Head-Change                         Max.-Flux-Residual
  Residual-Control   Outer-Iter.   Inner-Iter.     Column Row Layer    Maximum-Head-Change  Column Row Layer    Maximum-Flux-Residual          L2-NORM 
          0                 1           2             2    2     1       0.4362573845E-02       2    2    1         0.2276026270E+00      0.5075546267E+00
          0                 2           2             2    2     1      -0.4243601519E-03       2    2    1        -0.2276030779E-01      0.5065320008E-01
          0                 3           1             2    2     1       0.2889734662E-04       2    2    1         0.1593221805E-02      0.3536293280E-02

    ------------------------------------------------
       NWT REQUIRED            3 OUTER ITERATIONS 
       AND A TOTAL OF          5 INNER ITERATIONS.
    ------------------------------------------------

 NO OUTPUT CONTROL FOR STRESS PERIOD    4   TIME STEP   19
 
 SOLVING FOR HEAD 
                                                   Max.-Head-Change                         Max.-Flux-Residual
  Residual-Control   Outer-Iter.   Inner-Iter.     Column Row Layer    Maximum-Head-Change  Column Row Layer    Maximum-Flux-Residual          L2-NORM 
          0                 1           2             2    2     1       0.4338508452E-02       2    2    1         0.2263380583E+00      0.5034377484E+00
          0                 2           2             2    2     1      -0.4220192344E-03       2    2    1        -0.2263385019E-01      0.5025361756E-01
          0                 3           1             2    2     1       0.2873793842E-04       2    2    1         0.1584369763E-02      0.3509737241E-02

    ------------------------------------------------
       NWT REQUIRED            3 OUTER ITERATIONS 
       AND A TOTAL OF          5 INNER ITERATIONS.
    ------------------------------------------------

 NO OUTPUT CONTROL FOR STRESS PERIOD    4   TIME STEP   20
 
 SOLVING FOR HEAD 
                                                   Max.-Head-Change                         Max.-Flux-Residual
  Residual-Control   Outer-Iter.   Inner-Iter.     Column Row Layer    Maximum-Head-Change  Column Row Layer    Maximum-Flux-Residual          L2-NORM 
          0                 1           2             2    2     1       0.4314847168E-02       2    2    1         0.2250947353E+00      0.4996133819E+00
          0                 2           2             2    2     1      -0.4197176259E-03       2    2    1        -0.2250951718E-01      0.4988202170E-01
          0                 3           1             2    2     1       0.2858120793E-04       2    2    1         0.1575666462E-02      0.3484505145E-02

    ------------------------------------------------
       NWT REQUIRED            3 OUTER ITERATIONS 
       AND A TOTAL OF          5 INNER ITERATIONS.
    ------------------------------------------------

 NO OUTPUT CONTROL FOR STRESS PERIOD    4   TIME STEP   21
 
 SOLVING FOR HEAD 
                                                   Max.-Head-Change                         Max.-Flux-Residual
  Residual-Control   Outer-Iter.   Inner-Iter.     Column Row Layer    Maximum-Head-Change  Column Row Layer    Maximum-Flux-Residual          L2-NORM 
          0                 1           2             2    2     1       0.4291414479E-02       2    2    1         0.2238634830E+00      0.4960630000E+00
          0                 2           2             2    2     1      -0.4174382541E-03       2    2    1        -0.2238639126E-01      0.4953555933E-01
          0                 3           1             2    2     1       0.2842599145E-04       2    2    1         0.1567047673E-02      0.3460935748E-02

    ------------------------------------------------
       NWT REQUIRED            3 OUTER ITERATIONS 
       AND A TOTAL OF          5 INNER ITERATIONS.
    ------------------------------------------------

 NO OUTPUT CONTROL FOR STRESS PERIOD    4   TIME STEP   22
 
 SOLVING FOR HEAD 
                                                   Max.-Head-Change                         Max.-Flux-Residual
  Residual-Control   Outer-Iter.   Inner-Iter.     Column Row Layer    Maximum-Head-Change  Column Row Layer    Maximum-Flux-Residual          L2-NORM 
          0                 1           2             2    2     1       0.4268291955E-02       2    2    1         0.2226485241E+00      0.4927558579E+00
          0                 2           2             2    2     1      -0.4151890524E-03       2    2    1        -0.2226489467E-01      0.4921288649E-01
          0                 3           1             2    2     1       0.2827282929E-04       2    2    1         0.1558542905E-02      0.3439051360E-02

    ------------------------------------------------
       NWT REQUIRED            3 OUTER ITERATIONS 
       AND A TOTAL OF          5 INNER ITERATIONS.
    ------------------------------------------------

 NO OUTPUT CONTROL FOR STRESS PERIOD    4   TIME STEP   23
 
 SOLVING FOR HEAD 
                                                   Max.-Head-Change                         Max.-Flux-Residual
  Residual-Control   Outer-Iter.   Inner-Iter.     Column Row Layer    Maximum-Head-Change  Column Row Layer    Maximum-Flux-Residual          L2-NORM 
          0                 1           2             2    2     1       0.4245474501E-02       2    2    1         0.2214496470E+00      0.4896634156E+00
          0                 2           2             2    2     1      -0.4129695262E-03       2    2    1        -0.2214500630E-01      0.4890999654E-01
          0                 3           1             2    2     1       0.2812168760E-04       2    2    1         0.1550150717E-02      0.3418764024E-02

    ------------------------------------------------
       NWT REQUIRED            3 OUTER ITERATIONS 
       AND A TOTAL OF          5 INNER ITERATIONS.
    ------------------------------------------------

 NO OUTPUT CONTROL FOR STRESS PERIOD    4   TIME STEP   24
 
 SOLVING FOR HEAD 
                                                   Max.-Head-Change                         Max.-Flux-Residual
  Residual-Control   Outer-Iter.   Inner-Iter.     Column Row Layer    Maximum-Head-Change  Column Row Layer    Maximum-Flux-Residual          L2-NORM 
          0                 1           2             2    2     1       0.4222872837E-02       2    2    1         0.2202621459E+00      0.4867598423E+00
          0                 2           2             2    2     1      -0.4107709911E-03       2    2    1        -0.2202625555E-01      0.4862614022E-01
          0                 3           1             2    2     1       0.2797197567E-04       2    2    1         0.1541838174E-02      0.3398971447E-02

    ------------------------------------------------
       NWT REQUIRED            3 OUTER ITERATIONS 
       AND A TOTAL OF          5 INNER ITERATIONS.
    ------------------------------------------------

 NO OUTPUT CONTROL FOR STRESS PERIOD    4   TIME STEP   25
 
 SOLVING FOR HEAD 
                                                   Max.-Head-Change                         Max.-Flux-Residual
  Residual-Control   Outer-Iter.   Inner-Iter.     Column Row Layer    Maximum-Head-Change  Column Row Layer    Maximum-Flux-Residual          L2-NORM 
          0                 1           2             2    2     1       0.4200652667E-02       2    2    1         0.2190947162E+00      0.4840164055E+00
          0                 2           2             2    2     1      -0.4086095643E-03       2    2    1        -0.2190951193E-01      0.4835785523E-01
          0                 3           1             2    2     1       0.2782479069E-04       2    2    1         0.1533666110E-02      0.3380996787E-02

    ------------------------------------------------
       NWT REQUIRED            3 OUTER ITERATIONS 
       AND A TOTAL OF          5 INNER ITERATIONS.
    ------------------------------------------------

 NO OUTPUT CONTROL FOR STRESS PERIOD    4   TIME STEP   26
 
 SOLVING FOR HEAD 
                                                   Max.-Head-Change                         Max.-Flux-Residual
  Residual-Control   Outer-Iter.   Inner-Iter.     Column Row Layer    Maximum-Head-Change  Column Row Layer    Maximum-Flux-Residual          L2-NORM 
          0                 1           2             2    2     1       0.4178639160E-02       2    2    1         0.2179381834E+00      0.4814391590E+00
          0                 2           2             2    2     1      -0.4064682415E-03       2    2    1        -0.2179385804E-01      0.4810489317E-01
          0                 3           1             2    2     1       0.2767897487E-04       2    2    1         0.1525570355E-02      0.3363678767E-02

    ------------------------------------------------
       NWT REQUIRED            3 OUTER ITERATIONS 
       AND A TOTAL OF          5 INNER ITERATIONS.
    ------------------------------------------------

 NO OUTPUT CONTROL FOR STRESS PERIOD    4   TIME STEP   27
 
 SOLVING FOR HEAD 
                                                   Max.-Head-Change                         Max.-Flux-Residual
  Residual-Control   Outer-Iter.   Inner-Iter.     Column Row Layer    Maximum-Head-Change  Column Row Layer    Maximum-Flux-Residual          L2-NORM 
          0                 1           2             2    2     1       0.4156913551E-02       2    2    1         0.2167968075E+00      0.4789933315E+00
          0                 2           2             2    2     1      -0.4043549225E-03       2    2    1        -0.2167971982E-01      0.4786439523E-01
          0                 3           1             2    2     1       0.2753506545E-04       2    2    1         0.1517580677E-02      0.3347339350E-02

    ------------------------------------------------
       NWT REQUIRED            3 OUTER ITERATIONS 
       AND A TOTAL OF          5 INNER ITERATIONS.
    ------------------------------------------------

 NO OUTPUT CONTROL FOR STRESS PERIOD    4   TIME STEP   28
 
 SOLVING FOR HEAD 
                                                   Max.-Head-Change                         Max.-Flux-Residual
  Residual-Control   Outer-Iter.   Inner-Iter.     Column Row Layer    Maximum-Head-Change  Column Row Layer    Maximum-Flux-Residual          L2-NORM 
          0                 1           2             2    2     1       0.4135471841E-02       2    2    1         0.2156703588E+00      0.4766663408E+00
          0                 2           2             2    2     1      -0.4022692199E-03       2    2    1        -0.2156707436E-01      0.4763557775E-01
          0                 3           1             2    2     1       0.2739303687E-04       2    2    1         0.1509695497E-02      0.3372475522E-02

    ------------------------------------------------
       NWT REQUIRED            3 OUTER ITERATIONS 
       AND A TOTAL OF          5 INNER ITERATIONS.
    ------------------------------------------------

 NO OUTPUT CONTROL FOR STRESS PERIOD    4   TIME STEP   29
 
 SOLVING FOR HEAD 
                                                   Max.-Head-Change                         Max.-Flux-Residual
  Residual-Control   Outer-Iter.   Inner-Iter.     Column Row Layer    Maximum-Head-Change  Column Row Layer    Maximum-Flux-Residual          L2-NORM 
          0                 1           2             2    2     1       0.3369543325E-02       2    2    1         0.1756372830E+00      0.4352889761E+00
          0                 2           2             2    2     1      -0.3277650367E-03       2    2    1        -0.1756375192E-01      0.4340655926E-01
          0                 3           1             2    2     1       0.2231958058E-04       2    2    1         0.1229462943E-02      0.3027373875E-02

    ------------------------------------------------
       NWT REQUIRED            3 OUTER ITERATIONS 
       AND A TOTAL OF          5 INNER ITERATIONS.
    ------------------------------------------------

 NO OUTPUT CONTROL FOR STRESS PERIOD    4   TIME STEP   30



 STREAM LISTING     PERIOD      4   STEP       30

 LAYER ROW COL. STREAM  RCH.  FLOW INTO     FLOW TO   FLOW OUT OF   OVRLND.     DIRECT     STREAM       STREAM     STREAM     STREAM   STREAMBED  STREAMBED
                SEG.NO.  NO.  STRM. RCH.    AQUIFER    STRM. RCH.    RUNOFF     PRECIP       ET          HEAD       DEPTH      WIDTH   CONDCTNC.   GRADIENT

   1    1    1     1     1    2.3343E+01  2.3738E-01   2.3105E+01  0.000E+00  0.000E+00  0.000E+00  1.09420E+03  1.153E+00  1.270E+01  5.716E-02  1.384E+00
   1    2    2     1     2    2.3105E+01  3.6700E-01   2.2738E+01  0.000E+00  0.000E+00  0.000E+00  1.08921E+03  1.148E+00  1.264E+01  8.847E-02  1.383E+00
   1    3    3     1     3    2.2738E+01  3.1238E-01   2.2426E+01  0.000E+00  0.000E+00  0.000E+00  1.08356E+03  1.143E+00  1.257E+01  7.540E-02  1.381E+00
   1    3    4     1     4    2.2426E+01  2.8716E-01   2.2139E+01  0.000E+00  0.000E+00  0.000E+00  1.07855E+03  1.138E+00  1.250E+01  6.939E-02  1.379E+00
   1    4    5     2     1    2.0139E+01  3.1634E-01   1.9822E+01  0.000E+00  0.000E+00  0.000E+00  1.07299E+03  1.056E+00  1.200E+01  7.800E-02  1.352E+00
   1    5    6     2     2    1.9822E+01  2.4280E-01   1.9580E+01  0.000E+00  0.000E+00  0.000E+00  1.06756E+03  1.047E+00  1.200E+01  6.000E-02  1.349E+00
   1    6    6     2     3    1.9580E+01  2.4234E-01   1.9337E+01  0.000E+00  0.000E+00  0.000E+00  1.06283E+03  1.039E+00  1.200E+01  6.000E-02  1.346E+00
   1    7    6     2     4    1.9337E+01  2.4187E-01   1.9095E+01  0.000E+00  0.000E+00  0.000E+00  1.05811E+03  1.031E+00  1.200E+01  6.000E-02  1.344E+00
   1    8    6     2     5    1.9095E+01  2.4140E-01   1.8854E+01  0.000E+00  0.000E+00  0.000E+00  1.05338E+03  1.023E+00  1.200E+01  6.000E-02  1.341E+00
   1    3    5     3     1    2.0000E+00  2.8252E-01   1.7175E+00  0.000E+00  0.000E+00  0.000E+00  1.07555E+03  1.909E+00  9.636E+00  7.227E-02  1.955E+00
   1    3    6     3     2    1.7175E+00  2.4905E-01   1.4684E+00  0.000E+00  0.000E+00  0.000E+00  1.07264E+03  1.727E+00  8.909E+00  6.682E-02  1.864E+00
   1    3    7     3     3    1.4684E+00  1.9718E-01   1.2712E+00  0.000E+00  0.000E+00  0.000E+00  1.06987E+03  1.555E+00  8.218E+00  5.547E-02  1.777E+00
   1    4    8     3     4    1.2712E+00  2.2567E-01   1.0456E+00  0.000E+00  0.000E+00  0.000E+00  1.06682E+03  1.364E+00  7.455E+00  6.709E-02  1.682E+00
   1    5    8     3     5    1.0456E+00  1.5790E-01   8.8768E-01  0.000E+00  0.000E+00  0.000E+00  1.06362E+03  1.164E+00  6.655E+00  4.991E-02  1.582E+00
   1    6    8     3     6    8.8768E-01  5.5980E-02   8.3170E-01  0.000E+00  0.000E+00  0.000E+00  1.06158E+03  1.036E+00  6.145E+00  1.844E-02  1.518E+00
   1    5   10     4     1    1.0000E+01  9.0919E-02   9.9091E+00  0.000E+00  0.000E+00  0.000E+00  1.07836E+03  6.368E-01  1.000E+01  2.500E-02  1.212E+00
   1    5    9     4     2    9.9091E+00  1.8158E-01   9.7275E+00  0.000E+00  0.000E+00  0.000E+00  1.07154E+03  6.315E-01  1.000E+01  5.000E-02  1.211E+00
   1    6    8     4     3    9.7275E+00  1.2689E-01   9.6006E+00  0.000E+00  0.000E+00  0.000E+00  1.06381E+03  6.256E-01  1.000E+01  3.500E-02  1.209E+00
   1    6    8     5     1    1.0432E+01  2.2686E-01   1.0205E+01  0.000E+00  0.000E+00  0.000E+00  1.05868E+03  6.790E-01  1.542E+01  6.166E-02  1.226E+00
   1    7    7     5     2    1.0205E+01  2.7894E-01   9.9265E+00  0.000E+00  0.000E+00  0.000E+00  1.05417E+03  6.732E-01  1.519E+01  7.594E-02  1.224E+00
   1    8    7     5     3    9.9265E+00  1.9221E-01   9.7343E+00  0.000E+00  0.000E+00  0.000E+00  1.04992E+03  6.676E-01  1.497E+01  5.241E-02  1.223E+00
   1    8    6     5     4    9.7343E+00  1.3577E-01   9.5985E+00  0.000E+00  0.000E+00  0.000E+00  1.04691E+03  6.637E-01  1.482E+01  3.706E-02  1.221E+00
   1    9    6     6     1    2.8452E+01  2.5896E-01   2.8194E+01  0.000E+00  0.000E+00  0.000E+00  1.04404E+03  1.316E+00  1.200E+01  6.000E-02  1.439E+00
   1   10    7     6     2    2.8194E+01  2.5853E-01   2.7935E+01  0.000E+00  0.000E+00  0.000E+00  1.03949E+03  1.309E+00  1.200E+01  6.000E-02  1.436E+00
   1   11    7     6     3    2.7935E+01  2.5809E-01   2.7677E+01  0.000E+00  0.000E+00  0.000E+00  1.03494E+03  1.302E+00  1.200E+01  6.000E-02  1.434E+00
   1   12    7     6     4    2.7677E+01  2.5766E-01   2.7419E+01  0.000E+00  0.000E+00  0.000E+00  1.03039E+03  1.294E+00  1.200E+01  6.000E-02  1.431E+00
   1   13    7     6     5    2.7419E+01  8.2030E-03   2.7411E+01  0.000E+00  0.000E+00  0.000E+00  1.02720E+03  1.291E+00  1.200E+01  2.400E-02  1.139E-01
   1   14    9     7     1    1.5000E+02  1.3670E+00   1.4863E+02  0.000E+00  0.000E+00  0.000E+00  1.03987E+03  2.288E+00  5.529E+01  5.593E-01  8.147E-01
   1   13    8     7     2    1.4863E+02  1.9172E+00   1.4672E+02  0.000E+00  0.000E+00  0.000E+00  1.03478E+03  2.279E+00  5.526E+01  6.148E-01  1.040E+00
   1   13    7     7     3    1.4672E+02  1.5809E+00   1.4513E+02  0.000E+00  0.000E+00  0.000E+00  1.02969E+03  2.270E+00  5.521E+01  5.584E-01  9.437E-01
   1   13    6     8     1    1.7255E+02  1.0238E+00   1.7152E+02  0.000E+00  0.000E+00  0.000E+00  1.02484E+03  2.965E+00  4.300E+01  4.382E-01  7.788E-01
   1   13    5     8     2    1.7152E+02  2.5244E-01   1.7127E+02  0.000E+00  0.000E+00  0.000E+00  1.01859E+03  2.961E+00  4.294E+01  4.376E-01  1.923E-01
   1   13    4     8     3    1.7127E+02 -2.2862E+00   1.7356E+02  0.000E+00  0.000E+00  0.000E+00  1.01234E+03  2.968E+00  4.303E+01  4.385E+00 -1.738E-01
   1   13    3     8     4    1.7356E+02 -3.5976E+00   1.7715E+02  0.000E+00  0.000E+00  0.000E+00  1.00611E+03  2.987E+00  4.331E+01  4.413E+00 -2.717E-01
   1   13    2     8     5    1.7715E+02 -2.6042E+00   1.7976E+02  0.000E+00  0.000E+00  0.000E+00  9.99881E+02  3.006E+00  4.359E+01  4.442E+00 -1.954E-01
   1   13    1     8     6    1.7976E+02 -1.9818E+00   1.8174E+02  0.000E+00  0.000E+00  0.000E+00  9.94896E+02  3.021E+00  4.380E+01  2.678E+00 -2.467E-01
   1    8    6     9     1    0.0000E+00  0.0000E+00   0.0000E+00  0.000E+00  0.000E+00  0.000E+00  1.07875E+03  0.000E+00  4.000E+00  0.000E+00  1.000E+00
   1    8    5     9     2    0.0000E+00  0.0000E+00   0.0000E+00  0.000E+00  0.000E+00  0.000E+00  1.07825E+03  0.000E+00  4.000E+00  0.000E+00  1.000E+00





UNSATURATED ZONE PACKAGE VOLUMETRIC BUDGET FOR  TIME STEP    30 STRESS PERIOD    4
  ------------------------------------------------------------------------------



     CUMULATIVE VOLUMES      L**3       RATES FOR THIS TIME STEP      L**3/T
     ------------------                 ------------------------

           IN:                                      IN:
           ---                                      ---
        INFILTRATION =     6759998.6182          INFILTRATION =           0.8475

          OUT:                                     OUT:
          ----                                     ----
              UZF ET =     5917485.4539                UZF ET =           0.7500
        UZF RECHARGE =       73224.0000          UZF RECHARGE =       0.0000E+00

            IN - OUT =      769289.1644              IN - OUT =       9.7500E-02

          STORAGE:                                 STORAGE:
          --------                                 --------
      STORAGE CHANGE =      769289.2225        STORAGE CHANGE =       9.7500E-02

 PERCENT DISCREPANCY IS DIFFERENCE BETWEEN IN-OUT MINUS CHANGE IN STORAGE
 DIVIDED BY THE AVERAGE OF IN AND OUT TIMES 100

 PERCENT DISCREPANCY =           0.00     PERCENT DISCREPANCY =           0.00






1
  VOLUMETRIC BUDGET FOR AGRICULTURAL FIELDS AT  END OF TIME STEP   30, STRESS PERIOD   4
  ------------------------------------------------------------------------------

     CUMULATIVE VOLUMES      L**3       RATES FOR THIS TIME STEP      L**3/T
     ------------------                 ------------------------

           IN:                                      IN:
           ---                                      ---
               AG WELLS  =           0.0000                 AG WELLS  =           0.0000
      DIVERSION SEGMENTS =           0.0000        DIVERSION SEGMENTS =           0.0000
           GW IRRIGATION =           0.0000             GW IRRIGATION =           0.0000
           SW IRRIGATION =           0.0000             SW IRRIGATION =           0.0000
        SYSTEM LOSSES GW =           0.0000          SYSTEM LOSSES GW =           0.0000
        SYSTEM LOSSES SW =           0.0000          SYSTEM LOSSES SW =           0.0000

                TOTAL IN =           0.0000                  TOTAL IN =           0.0000

          OUT:                                     OUT:
          ----                                     ----
               AG WELLS  =           0.0000                 AG WELLS  =           0.0000
      DIVERSION SEGMENTS =           0.0000        DIVERSION SEGMENTS =           0.0000
           GW IRRIGATION =           0.0000             GW IRRIGATION =           0.0000
           SW IRRIGATION =           0.0000             SW IRRIGATION =           0.0000
        SYSTEM LOSSES GW =           0.0000          SYSTEM LOSSES GW =           0.0000
        SYSTEM LOSSES SW =           0.0000          SYSTEM LOSSES SW =           0.0000

               TOTAL OUT =           0.0000                 TOTAL OUT =           0.0000

                IN - OUT =           0.0000                  IN - OUT =           0.0000

     PERCENT DISCREPANCY =           0.00         PERCENT DISCREPANCY =           0.00



1
  VOLUMETRIC BUDGET FOR ENTIRE MODEL AT END OF TIME STEP   30, STRESS PERIOD   4
  ------------------------------------------------------------------------------

     CUMULATIVE VOLUMES      L**3       RATES FOR THIS TIME STEP      L**3/T
     ------------------                 ------------------------

           IN:                                      IN:
           ---                                      ---
             STORAGE     =     4302723.0000               STORAGE     =           0.6662
       CONSTANT HEAD     =           0.0000         CONSTANT HEAD     =           0.0000
     HEAD DEP BOUNDS     =     2295783.0000       HEAD DEP BOUNDS     =           0.2879
      STREAM LEAKAGE     =    93457376.0000        STREAM LEAKAGE     =          12.0729
        UZF RECHARGE     =       73223.9531          UZF RECHARGE     =           0.0000
               GW ET     =           0.0000                 GW ET     =           0.0000
     SURFACE LEAKAGE     =           0.0000       SURFACE LEAKAGE     =           0.0000
           AG WELLS      =           0.0000             AG WELLS      =           0.0000

                TOTAL IN =   100129104.0000                  TOTAL IN =          13.0270

          OUT:                                     OUT:
          ----                                     ----
             STORAGE     =    17553954.0000               STORAGE     =           2.2674
       CONSTANT HEAD     =           0.0000         CONSTANT HEAD     =           0.0000
     HEAD DEP BOUNDS     =     2297699.7500       HEAD DEP BOUNDS     =           0.2902
      STREAM LEAKAGE     =    80281208.0000        STREAM LEAKAGE     =          10.4698
        UZF RECHARGE     =           0.0000          UZF RECHARGE     =           0.0000
               GW ET     =           0.0000                 GW ET     =           0.0000
     SURFACE LEAKAGE     =           0.0000       SURFACE LEAKAGE     =           0.0000
           AG WELLS      =           0.0000             AG WELLS      =           0.0000

               TOTAL OUT =   100132864.0000                 TOTAL OUT =          13.0274

                IN - OUT =       -3760.0000                  IN - OUT =      -4.5490E-04

     PERCENT DISCREPANCY =          -0.00         PERCENT DISCREPANCY =          -0.00






         TIME SUMMARY AT END OF TIME STEP   30 IN STRESS PERIOD    4
                    SECONDS     MINUTES      HOURS       DAYS        YEARS
                    -----------------------------------------------------------
   TIME STEP LENGTH  87667.      1461.1      24.352      1.0147     2.77799E-03
 STRESS PERIOD TIME 2.63000E+06  43833.      730.56      30.440     8.33397E-02
         TOTAL TIME 7.97639E+06 1.32940E+05  2215.7      92.319     0.25276    
1
1
                            STRESS PERIOD NO.    5, LENGTH =   2630000.    
                            -----------------------------------------------

                              NUMBER OF TIME STEPS =    30

                               MULTIPLIER FOR DELT =     1.000

                            INITIAL TIME STEP SIZE =   87666.66    

 REUSING NON-PARAMETER GHB CELLS FROM LAST STRESS PERIOD

      2 GHB CELLS

 REUSING STREAM SEGMENT DATA FROM LAST STRESS PERIOD



            AREAL INFILTRATION RATE
 READING ON UNIT   19 WITH FORMAT: (FREE)              

            1           2           3           4           5           6           7           8           9          10
 ........................................................................................................................
   1   1.0000E-10  2.0000E-10   0.000       0.000       0.000       0.000       0.000       0.000       0.000       0.000    
   2   2.0000E-10  1.0000E-10  2.0000E-10   0.000       0.000      8.0000E-10  8.0000E-10  5.0000E-10   0.000       0.000    
   3    0.000      5.0000E-10  1.0000E-10  1.0000E-10  8.0000E-10  8.0000E-10  5.0000E-10  5.0000E-10   0.000       0.000    
   4   8.0000E-10  5.0000E-10  1.0000E-10  1.0000E-10  1.0000E-10  1.0000E-10  1.0000E-10  1.0000E-10  2.0000E-10   0.000    
   5   8.0000E-10  5.0000E-10  1.0000E-10  1.0000E-10  1.0000E-10  1.0000E-10  1.0000E-10  1.0000E-10  1.0000E-10  1.0000E-10
   6   8.0000E-10  5.0000E-10  5.0000E-10  2.0000E-10  2.0000E-10  1.0000E-10  1.0000E-10  1.0000E-10  1.0000E-10  5.0000E-10
   7   8.0000E-10  5.0000E-10  5.0000E-10  2.0000E-10  2.0000E-10  1.0000E-10  1.0000E-10  2.0000E-10  2.0000E-10   0.000    
   8    0.000      5.0000E-10  5.0000E-10  2.0000E-10  2.0000E-10  1.0000E-10  1.0000E-10  2.0000E-10  5.0000E-10   0.000    
   9    0.000      5.0000E-10  5.0000E-10  2.0000E-10  2.0000E-10  1.0000E-10  1.0000E-10  2.0000E-10  5.0000E-10   0.000    
  10    0.000      5.0000E-10  5.0000E-10  2.0000E-10  2.0000E-10  1.0000E-10  1.0000E-10  2.0000E-10  5.0000E-10  8.0000E-10
  11    0.000      1.0000E-10  1.0000E-10  1.0000E-10  1.0000E-10  1.0000E-10  1.0000E-10  2.0000E-10  5.0000E-10   0.000    
  12   1.0000E-10  1.0000E-10  1.0000E-10  1.0000E-10  1.0000E-10  1.0000E-10  1.0000E-10  1.0000E-10  2.0000E-10   0.000    
  13   1.0000E-10  1.0000E-10  2.0000E-10  2.0000E-10  2.0000E-10  2.0000E-10  2.0000E-10  1.0000E-10  1.0000E-10   0.000    
  14    0.000      2.0000E-10  5.0000E-10  5.0000E-10  5.0000E-10  5.0000E-10  5.0000E-10  2.0000E-10  1.0000E-10   0.000    
  15    0.000       0.000      8.0000E-10  8.0000E-10  8.0000E-10  8.0000E-10   0.000       0.000       0.000       0.000    

                  ET RATE =  2.500000E-08

 USING ET EXTINCTION DEPTH FROM PREVIOUS STRESS PERIOD. CURRENT PERIOD IS:       5

 USING EXTINCTION WATER CONTENT FROM PREVIOUS STRESS PERIOD. CURRENT PERIOD IS:       5

 USING AIR ENTRY PRESSURE FROM PREVIOUS STRESS PERIOD. CURRENT PERIOD IS:       5

 USING ROOT PRESSURE HEAD FROM PREVIOUS STRESS PERIOD. CURRENT PERIOD IS:       5

 USING ROOT ACTIVITY FROM PREVIOUS STRESS PERIOD. CURRENT PERIOD IS:       5

 PROCESSING AG STRESS PERIOD DATA

 READING AG STRESS PERIOD DATA

 READING IRRIGATION SEGMENT

 READING IRRIGATION WELL

 READING SUPPLEMENTAL WELL

 END PROCESSING AG STRESS PERIOD DATA OPTIONS
 
 SOLVING FOR HEAD 
                                                   Max.-Head-Change                         Max.-Flux-Residual
  Residual-Control   Outer-Iter.   Inner-Iter.     Column Row Layer    Maximum-Head-Change  Column Row Layer    Maximum-Flux-Residual          L2-NORM 
          0                 1           2             4   13     1      -0.7750541857E-02       4   13    1        -0.4441166749E+00      0.7888330163E+00
          0                 2           2             4    7     1      -0.1443093747E+01       5    6    1        -0.7750536679E+02      0.1898439423E+03
          0                 3           2             4    7     1       0.1061097377E+00       5    8    1         0.5919293223E+01      0.1442065784E+02
          0                 4           2             4    7     1      -0.1806919051E-01       5    8    1        -0.1027411623E+01      0.2513397276E+01
          0                 5           2             4    7     1       0.2227989958E-03       5    8    1         0.1302038155E-01      0.3185332237E-01
          0                 6           1             4    7     1       0.3276756315E-05       5    8    1         0.1914918319E-03      0.4685813466E-03

    ------------------------------------------------
       NWT REQUIRED            6 OUTER ITERATIONS 
       AND A TOTAL OF         11 INNER ITERATIONS.
    ------------------------------------------------

 NO OUTPUT CONTROL FOR STRESS PERIOD    5   TIME STEP    1
 
 SOLVING FOR HEAD 
                                                   Max.-Head-Change                         Max.-Flux-Residual
  Residual-Control   Outer-Iter.   Inner-Iter.     Column Row Layer    Maximum-Head-Change  Column Row Layer    Maximum-Flux-Residual          L2-NORM 
          0                 1           2             5    8     1       0.4173559802E-01       5    8    1         0.2300787488E+01      0.4914959523E+01
          0                 2           2             5    8     1      -0.3711339889E-01       5    8    1        -0.2050178855E+01      0.4837734075E+01
          0                 3           2             4    7     1       0.2228871887E-01       5    8    1         0.1242828159E+01      0.3030472876E+01
          0                 4           2             4    7     1      -0.3297960479E-01       5    8    1        -0.1870923883E+01      0.4582248845E+01
          0                 5           2             4    7     1       0.4066463063E-03       4    7    1         0.2370123866E-01      0.5807345831E-01
          0                 6           1             4    7     1       0.5980641102E-05       5    8    1         0.3493252077E-03      0.8564561602E-03

    ------------------------------------------------
       NWT REQUIRED            6 OUTER ITERATIONS 
       AND A TOTAL OF         11 INNER ITERATIONS.
    ------------------------------------------------

 OUTPUT CONTROL FOR STRESS PERIOD    5   TIME STEP    2
    PRINT BUDGET
    SAVE BUDGET
 UBDSV1 SAVING "         STORAGE" ON UNIT 102 AT TIME STEP  2, STRESS PERIOD   5
 UBDSV2 SAVING "   CONSTANT HEAD" ON UNIT 102 AT TIME STEP  2, STRESS PERIOD   5
 UBDSV1 SAVING "FLOW RIGHT FACE " ON UNIT 102 AT TIME STEP  2, STRESS PERIOD   5
 UBDSV1 SAVING "FLOW FRONT FACE " ON UNIT 102 AT TIME STEP  2, STRESS PERIOD   5

  HEAD DEP BOUNDS   PERIOD    5   STEP     2
 BOUNDARY      1   LAYER   1   ROW    13   COL     1   RATE   -0.289873    
 BOUNDARY      2   LAYER   1   ROW    14   COL     9   RATE    0.287882    



 STREAM LISTING     PERIOD      5   STEP        2

 LAYER ROW COL. STREAM  RCH.  FLOW INTO     FLOW TO   FLOW OUT OF   OVRLND.     DIRECT     STREAM       STREAM     STREAM     STREAM   STREAMBED  STREAMBED
                SEG.NO.  NO.  STRM. RCH.    AQUIFER    STRM. RCH.    RUNOFF     PRECIP       ET          HEAD       DEPTH      WIDTH   CONDCTNC.   GRADIENT

   1    1    1     1     1    1.0500E+01  1.5271E-01   1.0347E+01  0.000E+00  0.000E+00  0.000E+00  1.09396E+03  9.109E-01  8.677E+00  3.905E-02  1.304E+00
   1    2    2     1     2    1.0347E+01  2.3504E-01   1.0112E+01  0.000E+00  0.000E+00  0.000E+00  1.08896E+03  9.059E-01  8.597E+00  6.018E-02  1.302E+00
   1    3    3     1     3    1.0112E+01  1.9904E-01   9.9132E+00  0.000E+00  0.000E+00  0.000E+00  1.08332E+03  9.003E-01  8.505E+00  5.103E-02  1.300E+00
   1    3    4     1     4    9.9132E+00  1.8195E-01   9.7312E+00  0.000E+00  0.000E+00  0.000E+00  1.07830E+03  8.947E-01  8.417E+00  4.672E-02  1.298E+00
   1    4    5     2     1    7.7312E+00  2.8007E-01   7.4512E+00  0.000E+00  0.000E+00  0.000E+00  1.07252E+03  5.907E-01  1.200E+01  7.800E-02  1.197E+00
   1    5    6     2     2    7.4512E+00  2.1474E-01   7.2364E+00  0.000E+00  0.000E+00  0.000E+00  1.06709E+03  5.790E-01  1.200E+01  6.000E-02  1.193E+00
   1    6    6     2     3    7.2364E+00  2.1413E-01   7.0223E+00  0.000E+00  0.000E+00  0.000E+00  1.06236E+03  5.688E-01  1.200E+01  6.000E-02  1.190E+00
   1    7    6     2     4    7.0223E+00  2.1351E-01   6.8088E+00  0.000E+00  0.000E+00  0.000E+00  1.05763E+03  5.585E-01  1.200E+01  6.000E-02  1.186E+00
   1    8    6     2     5    6.8088E+00  2.1289E-01   6.5959E+00  0.000E+00  0.000E+00  0.000E+00  1.05291E+03  5.481E-01  1.200E+01  6.000E-02  1.183E+00
   1    3    5     3     1    2.0000E+00  2.8252E-01   1.7175E+00  0.000E+00  0.000E+00  0.000E+00  1.07555E+03  1.909E+00  9.636E+00  7.227E-02  1.955E+00
   1    3    6     3     2    1.7175E+00  2.4905E-01   1.4684E+00  0.000E+00  0.000E+00  0.000E+00  1.07264E+03  1.727E+00  8.909E+00  6.682E-02  1.864E+00
   1    3    7     3     3    1.4684E+00  1.9718E-01   1.2712E+00  0.000E+00  0.000E+00  0.000E+00  1.06987E+03  1.555E+00  8.218E+00  5.547E-02  1.777E+00
   1    4    8     3     4    1.2712E+00  2.2567E-01   1.0456E+00  0.000E+00  0.000E+00  0.000E+00  1.06682E+03  1.364E+00  7.455E+00  6.709E-02  1.682E+00
   1    5    8     3     5    1.0456E+00  1.5790E-01   8.8768E-01  0.000E+00  0.000E+00  0.000E+00  1.06362E+03  1.164E+00  6.655E+00  4.991E-02  1.582E+00
   1    6    8     3     6    8.8768E-01  5.5980E-02   8.3170E-01  0.000E+00  0.000E+00  0.000E+00  1.06158E+03  1.036E+00  6.145E+00  1.844E-02  1.518E+00
   1    5   10     4     1    1.0000E+01  9.0919E-02   9.9091E+00  0.000E+00  0.000E+00  0.000E+00  1.07836E+03  6.368E-01  1.000E+01  2.500E-02  1.212E+00
   1    5    9     4     2    9.9091E+00  1.8158E-01   9.7275E+00  0.000E+00  0.000E+00  0.000E+00  1.07154E+03  6.315E-01  1.000E+01  5.000E-02  1.211E+00
   1    6    8     4     3    9.7275E+00  1.2689E-01   9.6006E+00  0.000E+00  0.000E+00  0.000E+00  1.06381E+03  6.256E-01  1.000E+01  3.500E-02  1.209E+00
   1    6    8     5     1    1.0432E+01  2.2686E-01   1.0205E+01  0.000E+00  0.000E+00  0.000E+00  1.05868E+03  6.790E-01  1.542E+01  6.166E-02  1.226E+00
   1    7    7     5     2    1.0205E+01  2.7894E-01   9.9265E+00  0.000E+00  0.000E+00  0.000E+00  1.05417E+03  6.732E-01  1.519E+01  7.594E-02  1.224E+00
   1    8    7     5     3    9.9265E+00  1.9221E-01   9.7343E+00  0.000E+00  0.000E+00  0.000E+00  1.04992E+03  6.676E-01  1.497E+01  5.241E-02  1.223E+00
   1    8    6     5     4    9.7343E+00  1.3577E-01   9.5985E+00  0.000E+00  0.000E+00  0.000E+00  1.04691E+03  6.637E-01  1.482E+01  3.706E-02  1.221E+00
   1    9    6     6     1    9.5985E+00  2.2097E-01   9.3776E+00  0.000E+00  0.000E+00  0.000E+00  1.04341E+03  6.828E-01  1.200E+01  6.000E-02  1.228E+00
   1   10    7     6     2    9.3776E+00  2.2039E-01   9.1572E+00  0.000E+00  0.000E+00  0.000E+00  1.03885E+03  6.732E-01  1.200E+01  6.000E-02  1.224E+00
   1   11    7     6     3    9.1572E+00  2.1981E-01   8.9374E+00  0.000E+00  0.000E+00  0.000E+00  1.03430E+03  6.636E-01  1.200E+01  6.000E-02  1.221E+00
   1   12    7     6     4    8.9374E+00  2.1923E-01   8.7181E+00  0.000E+00  0.000E+00  0.000E+00  1.02974E+03  6.539E-01  1.200E+01  6.000E-02  1.218E+00
   1   13    7     6     5    8.7181E+00 -7.1091E-02   8.7892E+00  0.000E+00  0.000E+00  0.000E+00  1.02656E+03  6.506E-01  1.200E+01  2.400E-01 -9.874E-02
   1   14    9     7     1    1.5000E+02  1.3670E+00   1.4863E+02  0.000E+00  0.000E+00  0.000E+00  1.03987E+03  2.288E+00  5.529E+01  5.593E-01  8.147E-01
   1   13    8     7     2    1.4863E+02  1.9171E+00   1.4672E+02  0.000E+00  0.000E+00  0.000E+00  1.03478E+03  2.279E+00  5.526E+01  6.148E-01  1.039E+00
   1   13    7     7     3    1.4672E+02  1.5820E+00   1.4513E+02  0.000E+00  0.000E+00  0.000E+00  1.02969E+03  2.270E+00  5.521E+01  5.584E-01  9.443E-01
   1   13    6     8     1    1.5392E+02  9.2969E-01   1.5299E+02  0.000E+00  0.000E+00  0.000E+00  1.02472E+03  2.841E+00  4.119E+01  4.198E-01  7.382E-01
   1   13    5     8     2    1.5299E+02  1.9043E-01   1.5280E+02  0.000E+00  0.000E+00  0.000E+00  1.01846E+03  2.837E+00  4.114E+01  4.192E-01  1.514E-01
   1   13    4     8     3    1.5280E+02 -2.6415E+00   1.5544E+02  0.000E+00  0.000E+00  0.000E+00  1.01222E+03  2.846E+00  4.126E+01  4.205E+00 -2.094E-01
   1   13    3     8     4    1.5544E+02 -3.9006E+00   1.5935E+02  0.000E+00  0.000E+00  0.000E+00  1.00599E+03  2.868E+00  4.159E+01  4.238E+00 -3.068E-01
   1   13    2     8     5    1.5935E+02 -2.9341E+00   1.6228E+02  0.000E+00  0.000E+00  0.000E+00  9.99766E+02  2.891E+00  4.192E+01  4.272E+00 -2.289E-01
   1   13    1     8     6    1.6228E+02 -2.1782E+00   1.6446E+02  0.000E+00  0.000E+00  0.000E+00  9.94784E+02  2.908E+00  4.217E+01  2.579E+00 -2.816E-01
   1    8    6     9     1    6.5959E+00  0.0000E+00   6.5959E+00  0.000E+00  0.000E+00  0.000E+00  1.08052E+03  1.765E+00  4.000E+00  0.000E+00  1.588E+00
   1    8    5     9     2    6.5959E+00  0.0000E+00   6.5959E+00  0.000E+00  0.000E+00  0.000E+00  1.08002E+03  1.765E+00  4.000E+00  0.000E+00  1.588E+00



 UBDSV3 SAVING "           GW ET" ON UNIT  61 AT TIME STEP  2, STRESS PERIOD   5
 UBDSV3 SAVING "    UZF RECHARGE" ON UNIT  61 AT TIME STEP  2, STRESS PERIOD   5
 UBDSV3 SAVING " SURFACE LEAKAGE" ON UNIT  61 AT TIME STEP  2, STRESS PERIOD   5
 UBDSV3 SAVING "       HORT+DUNN" ON UNIT  61 AT TIME STEP  2, STRESS PERIOD   5
 UBDSV3 SAVING "  STORAGE CHANGE" ON UNIT  61 AT TIME STEP  2, STRESS PERIOD   5


UNSATURATED ZONE PACKAGE VOLUMETRIC BUDGET FOR  TIME STEP     2 STRESS PERIOD    5
  ------------------------------------------------------------------------------



     CUMULATIVE VOLUMES      L**3       RATES FOR THIS TIME STEP      L**3/T
     ------------------                 ------------------------

           IN:                                      IN:
           ---                                      ---
        INFILTRATION =    50330183.6725          INFILTRATION =          22.6889

          OUT:                                     OUT:
          ----                                     ----
              UZF ET =     7403799.9883                UZF ET =           4.5675
        UZF RECHARGE =       73224.0000          UZF RECHARGE =       0.0000E+00

            IN - OUT =    42853159.6841              IN - OUT =          18.1214

          STORAGE:                                 STORAGE:
          --------                                 --------
      STORAGE CHANGE =    42855139.0898        STORAGE CHANGE =          18.1439

 PERCENT DISCREPANCY IS DIFFERENCE BETWEEN IN-OUT MINUS CHANGE IN STORAGE
 DIVIDED BY THE AVERAGE OF IN AND OUT TIMES 100

 PERCENT DISCREPANCY =          -0.00     PERCENT DISCREPANCY =          -0.10






 

            AG WELLS      PERIOD    5   STEP   2
 AG WELL      1   LAYER   1   ROW     6   COL     4   RATE    -2.54089    
 AG WELL      2   LAYER   1   ROW     6   COL     5   RATE    -2.54089    
 AG WELL      3   LAYER   1   ROW     7   COL     4   RATE    -2.54089    
 AG WELL      4   LAYER   1   ROW     7   COL     5   RATE    -2.54089    
 AG WELL      5   LAYER   1   ROW     8   COL     4   RATE    -2.54089    
 AG WELL      6   LAYER   1   ROW     8   COL     5   RATE    -2.54089    
 
 

   DIVERSION SEGMENTS     PERIOD    5   STEP   2
 SEGMENT      9   RATE     6.59590    
 
 

        SW IRRIGATION     PERIOD    5   STEP   2
 SEGMENT      9   ROW     6   COL     4   RATE     1.09934    
 SEGMENT      9   ROW     6   COL     5   RATE     1.09934    
 SEGMENT      9   ROW     7   COL     4   RATE     1.09934    
 SEGMENT      9   ROW     7   COL     5   RATE     1.09934    
 SEGMENT      9   ROW     8   COL     4   RATE     1.09934    
 SEGMENT      9   ROW     8   COL     5   RATE     1.09934    
 
 

        GW IRRIGATION     PERIOD    5   STEP   2
 AG WELL      1   ROW     6   COL     4   RATE     2.54089    
 AG WELL      2   ROW     6   COL     5   RATE     2.54089    
 AG WELL      3   ROW     7   COL     4   RATE     2.54089    
 AG WELL      4   ROW     7   COL     5   RATE     2.54089    
 AG WELL      5   ROW     8   COL     4   RATE     2.54089    
 AG WELL      6   ROW     8   COL     5   RATE     2.54089    
 
1
  VOLUMETRIC BUDGET FOR AGRICULTURAL FIELDS AT  END OF TIME STEP    2, STRESS PERIOD   5
  ------------------------------------------------------------------------------

     CUMULATIVE VOLUMES      L**3       RATES FOR THIS TIME STEP      L**3/T
     ------------------                 ------------------------

           IN:                                      IN:
           ---                                      ---
               AG WELLS  =    42265088.0000                 AG WELLS  =          15.2453
      DIVERSION SEGMENTS =     1156480.2500        DIVERSION SEGMENTS =           6.5959
           GW IRRIGATION =           0.0000             GW IRRIGATION =           0.0000
           SW IRRIGATION =           0.0000             SW IRRIGATION =           0.0000
        SYSTEM LOSSES GW =           0.0000          SYSTEM LOSSES GW =           0.0000
        SYSTEM LOSSES SW =           0.0000          SYSTEM LOSSES SW =           0.0000

                TOTAL IN =    43421568.0000                  TOTAL IN =          21.8412

          OUT:                                     OUT:
          ----                                     ----
               AG WELLS  =           0.0000                 AG WELLS  =           0.0000
      DIVERSION SEGMENTS =           0.0000        DIVERSION SEGMENTS =           0.0000
           GW IRRIGATION =    42265088.0000             GW IRRIGATION =          15.2453
           SW IRRIGATION =     1156503.3750             SW IRRIGATION =           6.5960
        SYSTEM LOSSES GW =           0.0000          SYSTEM LOSSES GW =           0.0000
        SYSTEM LOSSES SW =           0.0000          SYSTEM LOSSES SW =           0.0000

               TOTAL OUT =    43421592.0000                 TOTAL OUT =          21.8414

                IN - OUT =         -24.0000                  IN - OUT =      -1.3161E-04

     PERCENT DISCREPANCY =          -0.00         PERCENT DISCREPANCY =          -0.00



1
  VOLUMETRIC BUDGET FOR ENTIRE MODEL AT END OF TIME STEP    2, STRESS PERIOD   5
  ------------------------------------------------------------------------------

     CUMULATIVE VOLUMES      L**3       RATES FOR THIS TIME STEP      L**3/T
     ------------------                 ------------------------

           IN:                                      IN:
           ---                                      ---
             STORAGE     =    46831436.0000               STORAGE     =          16.6529
       CONSTANT HEAD     =           0.0000         CONSTANT HEAD     =           0.0000
     HEAD DEP BOUNDS     =     2346258.2500       HEAD DEP BOUNDS     =           0.2879
      STREAM LEAKAGE     =    95416104.0000        STREAM LEAKAGE     =          11.1722
        UZF RECHARGE     =       73223.9531          UZF RECHARGE     =           0.0000
               GW ET     =           0.0000                 GW ET     =           0.0000
     SURFACE LEAKAGE     =           0.0000       SURFACE LEAKAGE     =           0.0000
           AG WELLS      =           0.0000             AG WELLS      =           0.0000

                TOTAL IN =   144667008.0000                  TOTAL IN =          28.1130

          OUT:                                     OUT:
          ----                                     ----
             STORAGE     =    17711842.0000               STORAGE     =           0.8521
       CONSTANT HEAD     =           0.0000         CONSTANT HEAD     =           0.0000
     HEAD DEP BOUNDS     =     2348536.7500       HEAD DEP BOUNDS     =           0.2899
      STREAM LEAKAGE     =    82345312.0000        STREAM LEAKAGE     =          11.7256
        UZF RECHARGE     =           0.0000          UZF RECHARGE     =           0.0000
               GW ET     =           0.0000                 GW ET     =           0.0000
     SURFACE LEAKAGE     =           0.0000       SURFACE LEAKAGE     =           0.0000
           AG WELLS      =    42265088.0000             AG WELLS      =          15.2453

               TOTAL OUT =   144670784.0000                 TOTAL OUT =          28.1129

                IN - OUT =       -3776.0000                  IN - OUT =       3.4332E-05

     PERCENT DISCREPANCY =          -0.00         PERCENT DISCREPANCY =           0.00






         TIME SUMMARY AT END OF TIME STEP    2 IN STRESS PERIOD    5
                    SECONDS     MINUTES      HOURS       DAYS        YEARS
                    -----------------------------------------------------------
   TIME STEP LENGTH  87667.      1461.1      24.352      1.0147     2.77799E-03
 STRESS PERIOD TIME 1.75333E+05  2922.2      48.704      2.0293     5.55598E-03
         TOTAL TIME 8.15173E+06 1.35862E+05  2264.4      94.349     0.25831    
1
 
 SOLVING FOR HEAD 
                                                   Max.-Head-Change                         Max.-Flux-Residual
  Residual-Control   Outer-Iter.   Inner-Iter.     Column Row Layer    Maximum-Head-Change  Column Row Layer    Maximum-Flux-Residual          L2-NORM 
          0                 1           2             5    8     1       0.4075130338E-01       5    8    1         0.2244600909E+01      0.4829894358E+01
          0                 2           2             5    8     1      -0.2392797342E-01       5    8    1        -0.1323774101E+01      0.3079284682E+01
          0                 3           2             4    7     1       0.1005261009E-01       5    8    1         0.5669799154E+00      0.1376056443E+01
          0                 4           2             4    7     1      -0.4000032385E-03       5    8    1        -0.2318835153E-01      0.5628851313E-01
          0                 5           1             4    7     1       0.4932212609E-05       5    8    1         0.2937871870E-03      0.7148583454E-03

    ------------------------------------------------
       NWT REQUIRED            5 OUTER ITERATIONS 
       AND A TOTAL OF          9 INNER ITERATIONS.
    ------------------------------------------------

 OUTPUT CONTROL FOR STRESS PERIOD    5   TIME STEP    3
    PRINT BUDGET
    SAVE BUDGET
 UBDSV1 SAVING "         STORAGE" ON UNIT 102 AT TIME STEP  3, STRESS PERIOD   5
 UBDSV2 SAVING "   CONSTANT HEAD" ON UNIT 102 AT TIME STEP  3, STRESS PERIOD   5
 UBDSV1 SAVING "FLOW RIGHT FACE " ON UNIT 102 AT TIME STEP  3, STRESS PERIOD   5
 UBDSV1 SAVING "FLOW FRONT FACE " ON UNIT 102 AT TIME STEP  3, STRESS PERIOD   5

  HEAD DEP BOUNDS   PERIOD    5   STEP     3
 BOUNDARY      1   LAYER   1   ROW    13   COL     1   RATE   -0.289736    
 BOUNDARY      2   LAYER   1   ROW    14   COL     9   RATE    0.287883    



 STREAM LISTING     PERIOD      5   STEP        3

 LAYER ROW COL. STREAM  RCH.  FLOW INTO     FLOW TO   FLOW OUT OF   OVRLND.     DIRECT     STREAM       STREAM     STREAM     STREAM   STREAMBED  STREAMBED
                SEG.NO.  NO.  STRM. RCH.    AQUIFER    STRM. RCH.    RUNOFF     PRECIP       ET          HEAD       DEPTH      WIDTH   CONDCTNC.   GRADIENT

   1    1    1     1     1    1.0500E+01  1.5271E-01   1.0347E+01  0.000E+00  0.000E+00  0.000E+00  1.09396E+03  9.109E-01  8.677E+00  3.905E-02  1.304E+00
   1    2    2     1     2    1.0347E+01  2.3504E-01   1.0112E+01  0.000E+00  0.000E+00  0.000E+00  1.08896E+03  9.059E-01  8.597E+00  6.018E-02  1.302E+00
   1    3    3     1     3    1.0112E+01  1.9904E-01   9.9132E+00  0.000E+00  0.000E+00  0.000E+00  1.08332E+03  9.003E-01  8.505E+00  5.103E-02  1.300E+00
   1    3    4     1     4    9.9132E+00  1.8195E-01   9.7312E+00  0.000E+00  0.000E+00  0.000E+00  1.07830E+03  8.947E-01  8.417E+00  4.672E-02  1.298E+00
   1    4    5     2     1    7.7312E+00  2.8007E-01   7.4512E+00  0.000E+00  0.000E+00  0.000E+00  1.07252E+03  5.907E-01  1.200E+01  7.800E-02  1.197E+00
   1    5    6     2     2    7.4512E+00  2.1474E-01   7.2364E+00  0.000E+00  0.000E+00  0.000E+00  1.06709E+03  5.790E-01  1.200E+01  6.000E-02  1.193E+00
   1    6    6     2     3    7.2364E+00  2.1413E-01   7.0223E+00  0.000E+00  0.000E+00  0.000E+00  1.06236E+03  5.688E-01  1.200E+01  6.000E-02  1.190E+00
   1    7    6     2     4    7.0223E+00  2.1351E-01   6.8088E+00  0.000E+00  0.000E+00  0.000E+00  1.05763E+03  5.585E-01  1.200E+01  6.000E-02  1.186E+00
   1    8    6     2     5    6.8088E+00  2.1289E-01   6.5959E+00  0.000E+00  0.000E+00  0.000E+00  1.05291E+03  5.481E-01  1.200E+01  6.000E-02  1.183E+00
   1    3    5     3     1    2.0000E+00  2.8252E-01   1.7175E+00  0.000E+00  0.000E+00  0.000E+00  1.07555E+03  1.909E+00  9.636E+00  7.227E-02  1.955E+00
   1    3    6     3     2    1.7175E+00  2.4905E-01   1.4684E+00  0.000E+00  0.000E+00  0.000E+00  1.07264E+03  1.727E+00  8.909E+00  6.682E-02  1.864E+00
   1    3    7     3     3    1.4684E+00  1.9718E-01   1.2712E+00  0.000E+00  0.000E+00  0.000E+00  1.06987E+03  1.555E+00  8.218E+00  5.547E-02  1.777E+00
   1    4    8     3     4    1.2712E+00  2.2567E-01   1.0456E+00  0.000E+00  0.000E+00  0.000E+00  1.06682E+03  1.364E+00  7.455E+00  6.709E-02  1.682E+00
   1    5    8     3     5    1.0456E+00  1.5790E-01   8.8768E-01  0.000E+00  0.000E+00  0.000E+00  1.06362E+03  1.164E+00  6.655E+00  4.991E-02  1.582E+00
   1    6    8     3     6    8.8768E-01  5.5980E-02   8.3170E-01  0.000E+00  0.000E+00  0.000E+00  1.06158E+03  1.036E+00  6.145E+00  1.844E-02  1.518E+00
   1    5   10     4     1    1.0000E+01  9.0919E-02   9.9091E+00  0.000E+00  0.000E+00  0.000E+00  1.07836E+03  6.368E-01  1.000E+01  2.500E-02  1.212E+00
   1    5    9     4     2    9.9091E+00  1.8158E-01   9.7275E+00  0.000E+00  0.000E+00  0.000E+00  1.07154E+03  6.315E-01  1.000E+01  5.000E-02  1.211E+00
   1    6    8     4     3    9.7275E+00  1.2689E-01   9.6006E+00  0.000E+00  0.000E+00  0.000E+00  1.06381E+03  6.256E-01  1.000E+01  3.500E-02  1.209E+00
   1    6    8     5     1    1.0432E+01  2.2686E-01   1.0205E+01  0.000E+00  0.000E+00  0.000E+00  1.05868E+03  6.790E-01  1.542E+01  6.166E-02  1.226E+00
   1    7    7     5     2    1.0205E+01  2.7894E-01   9.9265E+00  0.000E+00  0.000E+00  0.000E+00  1.05417E+03  6.732E-01  1.519E+01  7.594E-02  1.224E+00
   1    8    7     5     3    9.9265E+00  1.9221E-01   9.7343E+00  0.000E+00  0.000E+00  0.000E+00  1.04992E+03  6.676E-01  1.497E+01  5.241E-02  1.223E+00
   1    8    6     5     4    9.7343E+00  1.3577E-01   9.5985E+00  0.000E+00  0.000E+00  0.000E+00  1.04691E+03  6.637E-01  1.482E+01  3.706E-02  1.221E+00
   1    9    6     6     1    9.5985E+00  2.2097E-01   9.3776E+00  0.000E+00  0.000E+00  0.000E+00  1.04341E+03  6.828E-01  1.200E+01  6.000E-02  1.228E+00
   1   10    7     6     2    9.3776E+00  2.2039E-01   9.1572E+00  0.000E+00  0.000E+00  0.000E+00  1.03885E+03  6.732E-01  1.200E+01  6.000E-02  1.224E+00
   1   11    7     6     3    9.1572E+00  2.1981E-01   8.9374E+00  0.000E+00  0.000E+00  0.000E+00  1.03430E+03  6.636E-01  1.200E+01  6.000E-02  1.221E+00
   1   12    7     6     4    8.9374E+00  2.1923E-01   8.7181E+00  0.000E+00  0.000E+00  0.000E+00  1.02974E+03  6.539E-01  1.200E+01  6.000E-02  1.218E+00
   1   13    7     6     5    8.7181E+00 -7.0867E-02   8.7890E+00  0.000E+00  0.000E+00  0.000E+00  1.02656E+03  6.506E-01  1.200E+01  2.400E-01 -9.843E-02
   1   14    9     7     1    1.5000E+02  1.3670E+00   1.4863E+02  0.000E+00  0.000E+00  0.000E+00  1.03987E+03  2.288E+00  5.529E+01  5.593E-01  8.147E-01
   1   13    8     7     2    1.4863E+02  1.9170E+00   1.4672E+02  0.000E+00  0.000E+00  0.000E+00  1.03478E+03  2.279E+00  5.526E+01  6.148E-01  1.039E+00
   1   13    7     7     3    1.4672E+02  1.5825E+00   1.4513E+02  0.000E+00  0.000E+00  0.000E+00  1.02969E+03  2.270E+00  5.521E+01  5.584E-01  9.447E-01
   1   13    6     8     1    1.5392E+02  9.3020E-01   1.5299E+02  0.000E+00  0.000E+00  0.000E+00  1.02472E+03  2.841E+00  4.119E+01  4.198E-01  7.386E-01
   1   13    5     8     2    1.5299E+02  1.9077E-01   1.5280E+02  0.000E+00  0.000E+00  0.000E+00  1.01846E+03  2.837E+00  4.114E+01  4.192E-01  1.517E-01
   1   13    4     8     3    1.5280E+02 -2.6140E+00   1.5542E+02  0.000E+00  0.000E+00  0.000E+00  1.01222E+03  2.846E+00  4.126E+01  4.205E+00 -2.072E-01
   1   13    3     8     4    1.5542E+02 -3.8763E+00   1.5929E+02  0.000E+00  0.000E+00  0.000E+00  1.00599E+03  2.868E+00  4.158E+01  4.238E+00 -3.049E-01
   1   13    2     8     5    1.5929E+02 -2.9078E+00   1.6220E+02  0.000E+00  0.000E+00  0.000E+00  9.99766E+02  2.891E+00  4.192E+01  4.272E+00 -2.269E-01
   1   13    1     8     6    1.6220E+02 -2.1699E+00   1.6437E+02  0.000E+00  0.000E+00  0.000E+00  9.94783E+02  2.908E+00  4.216E+01  2.578E+00 -2.806E-01
   1    8    6     9     1    6.5959E+00  0.0000E+00   6.5959E+00  0.000E+00  0.000E+00  0.000E+00  1.08052E+03  1.765E+00  4.000E+00  0.000E+00  1.588E+00
   1    8    5     9     2    6.5959E+00  0.0000E+00   6.5959E+00  0.000E+00  0.000E+00  0.000E+00  1.08002E+03  1.765E+00  4.000E+00  0.000E+00  1.588E+00



 UBDSV3 SAVING "           GW ET" ON UNIT  61 AT TIME STEP  3, STRESS PERIOD   5
 UBDSV3 SAVING "    UZF RECHARGE" ON UNIT  61 AT TIME STEP  3, STRESS PERIOD   5
 UBDSV3 SAVING " SURFACE LEAKAGE" ON UNIT  61 AT TIME STEP  3, STRESS PERIOD   5
 UBDSV3 SAVING "       HORT+DUNN" ON UNIT  61 AT TIME STEP  3, STRESS PERIOD   5
 UBDSV3 SAVING "  STORAGE CHANGE" ON UNIT  61 AT TIME STEP  3, STRESS PERIOD   5


UNSATURATED ZONE PACKAGE VOLUMETRIC BUDGET FOR  TIME STEP     3 STRESS PERIOD    5
  ------------------------------------------------------------------------------



     CUMULATIVE VOLUMES      L**3       RATES FOR THIS TIME STEP      L**3/T
     ------------------                 ------------------------

           IN:                                      IN:
           ---                                      ---
        INFILTRATION =    51311482.7621          INFILTRATION =          11.1935

          OUT:                                     OUT:
          ----                                     ----
              UZF ET =     7804217.4686                UZF ET =           4.5675
        UZF RECHARGE =       73224.0000          UZF RECHARGE =       0.0000E+00

            IN - OUT =    43434041.2935              IN - OUT =           6.6260

          STORAGE:                                 STORAGE:
          --------                                 --------
      STORAGE CHANGE =    43435892.9476        STORAGE CHANGE =           6.6246

 PERCENT DISCREPANCY IS DIFFERENCE BETWEEN IN-OUT MINUS CHANGE IN STORAGE
 DIVIDED BY THE AVERAGE OF IN AND OUT TIMES 100

 PERCENT DISCREPANCY =          -0.00     PERCENT DISCREPANCY =           0.01






 

            AG WELLS      PERIOD    5   STEP   3
 AG WELL      1   LAYER   1   ROW     6   COL     4   RATE   -0.625000    
 AG WELL      2   LAYER   1   ROW     6   COL     5   RATE   -0.625000    
 AG WELL      3   LAYER   1   ROW     7   COL     4   RATE   -0.625000    
 AG WELL      4   LAYER   1   ROW     7   COL     5   RATE   -0.625000    
 AG WELL      5   LAYER   1   ROW     8   COL     4   RATE   -0.625000    
 AG WELL      6   LAYER   1   ROW     8   COL     5   RATE   -0.625000    
 
 

   DIVERSION SEGMENTS     PERIOD    5   STEP   3
 SEGMENT      9   RATE     6.59590    
 
 

        SW IRRIGATION     PERIOD    5   STEP   3
 SEGMENT      9   ROW     6   COL     4   RATE     1.09934    
 SEGMENT      9   ROW     6   COL     5   RATE     1.09934    
 SEGMENT      9   ROW     7   COL     4   RATE     1.09934    
 SEGMENT      9   ROW     7   COL     5   RATE     1.09934    
 SEGMENT      9   ROW     8   COL     4   RATE     1.09934    
 SEGMENT      9   ROW     8   COL     5   RATE     1.09934    
 
 

        GW IRRIGATION     PERIOD    5   STEP   3
 AG WELL      1   ROW     6   COL     4   RATE    0.625000    
 AG WELL      2   ROW     6   COL     5   RATE    0.625000    
 AG WELL      3   ROW     7   COL     4   RATE    0.625000    
 AG WELL      4   ROW     7   COL     5   RATE    0.625000    
 AG WELL      5   ROW     8   COL     4   RATE    0.625000    
 AG WELL      6   ROW     8   COL     5   RATE    0.625000    
 
1
  VOLUMETRIC BUDGET FOR AGRICULTURAL FIELDS AT  END OF TIME STEP    3, STRESS PERIOD   5
  ------------------------------------------------------------------------------

     CUMULATIVE VOLUMES      L**3       RATES FOR THIS TIME STEP      L**3/T
     ------------------                 ------------------------

           IN:                                      IN:
           ---                                      ---
               AG WELLS  =    42593840.0000                 AG WELLS  =           3.7500
      DIVERSION SEGMENTS =     1734720.3750        DIVERSION SEGMENTS =           6.5959
           GW IRRIGATION =           0.0000             GW IRRIGATION =           0.0000
           SW IRRIGATION =           0.0000             SW IRRIGATION =           0.0000
        SYSTEM LOSSES GW =           0.0000          SYSTEM LOSSES GW =           0.0000
        SYSTEM LOSSES SW =           0.0000          SYSTEM LOSSES SW =           0.0000

                TOTAL IN =    44328560.0000                  TOTAL IN =          10.3459

          OUT:                                     OUT:
          ----                                     ----
               AG WELLS  =           0.0000                 AG WELLS  =           0.0000
      DIVERSION SEGMENTS =           0.0000        DIVERSION SEGMENTS =           0.0000
           GW IRRIGATION =    42593840.0000             GW IRRIGATION =           3.7500
           SW IRRIGATION =     1734755.0000             SW IRRIGATION =           6.5960
        SYSTEM LOSSES GW =           0.0000          SYSTEM LOSSES GW =           0.0000
        SYSTEM LOSSES SW =           0.0000          SYSTEM LOSSES SW =           0.0000

               TOTAL OUT =    44328596.0000                 TOTAL OUT =          10.3460

                IN - OUT =         -36.0000                  IN - OUT =      -1.3161E-04

     PERCENT DISCREPANCY =          -0.00         PERCENT DISCREPANCY =          -0.00



1
  VOLUMETRIC BUDGET FOR ENTIRE MODEL AT END OF TIME STEP    3, STRESS PERIOD   5
  ------------------------------------------------------------------------------

     CUMULATIVE VOLUMES      L**3       RATES FOR THIS TIME STEP      L**3/T
     ------------------                 ------------------------

           IN:                                      IN:
           ---                                      ---
             STORAGE     =    47710516.0000               STORAGE     =          10.0275
       CONSTANT HEAD     =           0.0000         CONSTANT HEAD     =           0.0000
     HEAD DEP BOUNDS     =     2371496.0000       HEAD DEP BOUNDS     =           0.2879
      STREAM LEAKAGE     =    96395648.0000        STREAM LEAKAGE     =          11.1735
        UZF RECHARGE     =       73223.9531          UZF RECHARGE     =           0.0000
               GW ET     =           0.0000                 GW ET     =           0.0000
     SURFACE LEAKAGE     =           0.0000       SURFACE LEAKAGE     =           0.0000
           AG WELLS      =           0.0000             AG WELLS      =           0.0000

                TOTAL IN =   146550880.0000                  TOTAL IN =          21.4889

          OUT:                                     OUT:
          ----                                     ----
             STORAGE     =    18221206.0000               STORAGE     =           5.8102
       CONSTANT HEAD     =           0.0000         CONSTANT HEAD     =           0.0000
     HEAD DEP BOUNDS     =     2373937.0000       HEAD DEP BOUNDS     =           0.2897
      STREAM LEAKAGE     =    83365656.0000        STREAM LEAKAGE     =          11.6389
        UZF RECHARGE     =           0.0000          UZF RECHARGE     =           0.0000
               GW ET     =           0.0000                 GW ET     =           0.0000
     SURFACE LEAKAGE     =           0.0000       SURFACE LEAKAGE     =           0.0000
           AG WELLS      =    42593840.0000             AG WELLS      =           3.7500

               TOTAL OUT =   146554640.0000                 TOTAL OUT =          21.4889

                IN - OUT =       -3760.0000                  IN - OUT =       2.6703E-05

     PERCENT DISCREPANCY =          -0.00         PERCENT DISCREPANCY =           0.00






         TIME SUMMARY AT END OF TIME STEP    3 IN STRESS PERIOD    5
                    SECONDS     MINUTES      HOURS       DAYS        YEARS
                    -----------------------------------------------------------
   TIME STEP LENGTH  87667.      1461.1      24.352      1.0147     2.77799E-03
 STRESS PERIOD TIME 2.63000E+05  4383.3      73.056      3.0440     8.33397E-03
         TOTAL TIME 8.23939E+06 1.37323E+05  2288.7      95.363     0.26109    
1
 
 SOLVING FOR HEAD 
                                                   Max.-Head-Change                         Max.-Flux-Residual
  Residual-Control   Outer-Iter.   Inner-Iter.     Column Row Layer    Maximum-Head-Change  Column Row Layer    Maximum-Flux-Residual          L2-NORM 
          0                 1           2             5    8     1       0.3882050223E-01       5    8    1         0.2136330613E+01      0.4634665505E+01
          0                 2           2             5    8     1      -0.3776152140E-02       5    8    1        -0.2136313859E+00      0.4633605735E+00
          0                 3           2             5    8     1       0.2571421981E-03       5    8    1         0.1495421933E-01      0.3242626676E-01
          0                 4           1             5    8     1      -0.1023192772E-04       5    8    1        -0.6116283560E-03      0.1325748092E-02

    ------------------------------------------------
       NWT REQUIRED            4 OUTER ITERATIONS 
       AND A TOTAL OF          7 INNER ITERATIONS.
    ------------------------------------------------

 OUTPUT CONTROL FOR STRESS PERIOD    5   TIME STEP    4
    PRINT BUDGET
    SAVE BUDGET
 UBDSV1 SAVING "         STORAGE" ON UNIT 102 AT TIME STEP  4, STRESS PERIOD   5
 UBDSV2 SAVING "   CONSTANT HEAD" ON UNIT 102 AT TIME STEP  4, STRESS PERIOD   5
 UBDSV1 SAVING "FLOW RIGHT FACE " ON UNIT 102 AT TIME STEP  4, STRESS PERIOD   5
 UBDSV1 SAVING "FLOW FRONT FACE " ON UNIT 102 AT TIME STEP  4, STRESS PERIOD   5

  HEAD DEP BOUNDS   PERIOD    5   STEP     4
 BOUNDARY      1   LAYER   1   ROW    13   COL     1   RATE   -0.289651    
 BOUNDARY      2   LAYER   1   ROW    14   COL     9   RATE    0.287884    



 STREAM LISTING     PERIOD      5   STEP        4

 LAYER ROW COL. STREAM  RCH.  FLOW INTO     FLOW TO   FLOW OUT OF   OVRLND.     DIRECT     STREAM       STREAM     STREAM     STREAM   STREAMBED  STREAMBED
                SEG.NO.  NO.  STRM. RCH.    AQUIFER    STRM. RCH.    RUNOFF     PRECIP       ET          HEAD       DEPTH      WIDTH   CONDCTNC.   GRADIENT

   1    1    1     1     1    1.0500E+01  1.5271E-01   1.0347E+01  0.000E+00  0.000E+00  0.000E+00  1.09396E+03  9.109E-01  8.677E+00  3.905E-02  1.304E+00
   1    2    2     1     2    1.0347E+01  2.3504E-01   1.0112E+01  0.000E+00  0.000E+00  0.000E+00  1.08896E+03  9.059E-01  8.597E+00  6.018E-02  1.302E+00
   1    3    3     1     3    1.0112E+01  1.9904E-01   9.9132E+00  0.000E+00  0.000E+00  0.000E+00  1.08332E+03  9.003E-01  8.505E+00  5.103E-02  1.300E+00
   1    3    4     1     4    9.9132E+00  1.8195E-01   9.7312E+00  0.000E+00  0.000E+00  0.000E+00  1.07830E+03  8.947E-01  8.417E+00  4.672E-02  1.298E+00
   1    4    5     2     1    7.7312E+00  2.8007E-01   7.4512E+00  0.000E+00  0.000E+00  0.000E+00  1.07252E+03  5.907E-01  1.200E+01  7.800E-02  1.197E+00
   1    5    6     2     2    7.4512E+00  2.1474E-01   7.2364E+00  0.000E+00  0.000E+00  0.000E+00  1.06709E+03  5.790E-01  1.200E+01  6.000E-02  1.193E+00
   1    6    6     2     3    7.2364E+00  2.1413E-01   7.0223E+00  0.000E+00  0.000E+00  0.000E+00  1.06236E+03  5.688E-01  1.200E+01  6.000E-02  1.190E+00
   1    7    6     2     4    7.0223E+00  2.1351E-01   6.8088E+00  0.000E+00  0.000E+00  0.000E+00  1.05763E+03  5.585E-01  1.200E+01  6.000E-02  1.186E+00
   1    8    6     2     5    6.8088E+00  2.1289E-01   6.5959E+00  0.000E+00  0.000E+00  0.000E+00  1.05291E+03  5.481E-01  1.200E+01  6.000E-02  1.183E+00
   1    3    5     3     1    2.0000E+00  2.8252E-01   1.7175E+00  0.000E+00  0.000E+00  0.000E+00  1.07555E+03  1.909E+00  9.636E+00  7.227E-02  1.955E+00
   1    3    6     3     2    1.7175E+00  2.4905E-01   1.4684E+00  0.000E+00  0.000E+00  0.000E+00  1.07264E+03  1.727E+00  8.909E+00  6.682E-02  1.864E+00
   1    3    7     3     3    1.4684E+00  1.9718E-01   1.2712E+00  0.000E+00  0.000E+00  0.000E+00  1.06987E+03  1.555E+00  8.218E+00  5.547E-02  1.777E+00
   1    4    8     3     4    1.2712E+00  2.2567E-01   1.0456E+00  0.000E+00  0.000E+00  0.000E+00  1.06682E+03  1.364E+00  7.455E+00  6.709E-02  1.682E+00
   1    5    8     3     5    1.0456E+00  1.5790E-01   8.8768E-01  0.000E+00  0.000E+00  0.000E+00  1.06362E+03  1.164E+00  6.655E+00  4.991E-02  1.582E+00
   1    6    8     3     6    8.8768E-01  5.5980E-02   8.3170E-01  0.000E+00  0.000E+00  0.000E+00  1.06158E+03  1.036E+00  6.145E+00  1.844E-02  1.518E+00
   1    5   10     4     1    1.0000E+01  9.0919E-02   9.9091E+00  0.000E+00  0.000E+00  0.000E+00  1.07836E+03  6.368E-01  1.000E+01  2.500E-02  1.212E+00
   1    5    9     4     2    9.9091E+00  1.8158E-01   9.7275E+00  0.000E+00  0.000E+00  0.000E+00  1.07154E+03  6.315E-01  1.000E+01  5.000E-02  1.211E+00
   1    6    8     4     3    9.7275E+00  1.2689E-01   9.6006E+00  0.000E+00  0.000E+00  0.000E+00  1.06381E+03  6.256E-01  1.000E+01  3.500E-02  1.209E+00
   1    6    8     5     1    1.0432E+01  2.2686E-01   1.0205E+01  0.000E+00  0.000E+00  0.000E+00  1.05868E+03  6.790E-01  1.542E+01  6.166E-02  1.226E+00
   1    7    7     5     2    1.0205E+01  2.7894E-01   9.9265E+00  0.000E+00  0.000E+00  0.000E+00  1.05417E+03  6.732E-01  1.519E+01  7.594E-02  1.224E+00
   1    8    7     5     3    9.9265E+00  1.9221E-01   9.7343E+00  0.000E+00  0.000E+00  0.000E+00  1.04992E+03  6.676E-01  1.497E+01  5.241E-02  1.223E+00
   1    8    6     5     4    9.7343E+00  1.3577E-01   9.5985E+00  0.000E+00  0.000E+00  0.000E+00  1.04691E+03  6.637E-01  1.482E+01  3.706E-02  1.221E+00
   1    9    6     6     1    1.6194E+01  2.3621E-01   1.5958E+01  0.000E+00  0.000E+00  0.000E+00  1.04366E+03  9.369E-01  1.200E+01  6.000E-02  1.312E+00
   1   10    7     6     2    1.5958E+01  2.3572E-01   1.5723E+01  0.000E+00  0.000E+00  0.000E+00  1.03911E+03  9.286E-01  1.200E+01  6.000E-02  1.310E+00
   1   11    7     6     3    1.5723E+01  2.3522E-01   1.5487E+01  0.000E+00  0.000E+00  0.000E+00  1.03456E+03  9.203E-01  1.200E+01  6.000E-02  1.307E+00
   1   12    7     6     4    1.5487E+01  2.3472E-01   1.5253E+01  0.000E+00  0.000E+00  0.000E+00  1.03000E+03  9.120E-01  1.200E+01  6.000E-02  1.304E+00
   1   13    7     6     5    1.5253E+01 -9.1263E-03   1.5262E+01  0.000E+00  0.000E+00  0.000E+00  1.02682E+03  9.079E-01  1.200E+01  2.400E-01 -1.268E-02
   1   14    9     7     1    1.5000E+02  1.3670E+00   1.4863E+02  0.000E+00  0.000E+00  0.000E+00  1.03987E+03  2.288E+00  5.529E+01  5.593E-01  8.147E-01
   1   13    8     7     2    1.4863E+02  1.9170E+00   1.4672E+02  0.000E+00  0.000E+00  0.000E+00  1.03478E+03  2.279E+00  5.526E+01  6.148E-01  1.039E+00
   1   13    7     7     3    1.4672E+02  1.5824E+00   1.4513E+02  0.000E+00  0.000E+00  0.000E+00  1.02969E+03  2.270E+00  5.521E+01  5.584E-01  9.446E-01
   1   13    6     8     1    1.6040E+02  9.6382E-01   1.5943E+02  0.000E+00  0.000E+00  0.000E+00  1.02476E+03  2.885E+00  4.184E+01  4.263E-01  7.536E-01
   1   13    5     8     2    1.5943E+02  2.1273E-01   1.5922E+02  0.000E+00  0.000E+00  0.000E+00  1.01851E+03  2.881E+00  4.178E+01  4.257E-01  1.666E-01
   1   13    4     8     3    1.5922E+02 -2.4531E+00   1.6167E+02  0.000E+00  0.000E+00  0.000E+00  1.01226E+03  2.889E+00  4.189E+01  4.269E+00 -1.916E-01
   1   13    3     8     4    1.6167E+02 -3.7382E+00   1.6541E+02  0.000E+00  0.000E+00  0.000E+00  1.00603E+03  2.910E+00  4.219E+01  4.299E+00 -2.898E-01
   1   13    2     8     5    1.6541E+02 -2.7572E+00   1.6817E+02  0.000E+00  0.000E+00  0.000E+00  9.99806E+02  2.931E+00  4.250E+01  4.331E+00 -2.122E-01
   1   13    1     8     6    1.6817E+02 -2.0910E+00   1.7026E+02  0.000E+00  0.000E+00  0.000E+00  9.94822E+02  2.947E+00  4.273E+01  2.613E+00 -2.668E-01
   1    8    6     9     1    1.1066E-07  0.0000E+00   1.1066E-07  0.000E+00  0.000E+00  0.000E+00  1.07875E+03  3.817E-05  4.000E+00  0.000E+00  1.000E+00
   1    8    5     9     2    1.1066E-07  0.0000E+00   1.1066E-07  0.000E+00  0.000E+00  0.000E+00  1.07825E+03  3.817E-05  4.000E+00  0.000E+00  1.000E+00



 UBDSV3 SAVING "           GW ET" ON UNIT  61 AT TIME STEP  4, STRESS PERIOD   5
 UBDSV3 SAVING "    UZF RECHARGE" ON UNIT  61 AT TIME STEP  4, STRESS PERIOD   5
 UBDSV3 SAVING " SURFACE LEAKAGE" ON UNIT  61 AT TIME STEP  4, STRESS PERIOD   5
 UBDSV3 SAVING "       HORT+DUNN" ON UNIT  61 AT TIME STEP  4, STRESS PERIOD   5
 UBDSV3 SAVING "  STORAGE CHANGE" ON UNIT  61 AT TIME STEP  4, STRESS PERIOD   5


UNSATURATED ZONE PACKAGE VOLUMETRIC BUDGET FOR  TIME STEP     4 STRESS PERIOD    5
  ------------------------------------------------------------------------------



     CUMULATIVE VOLUMES      L**3       RATES FOR THIS TIME STEP      L**3/T
     ------------------                 ------------------------

           IN:                                      IN:
           ---                                      ---
        INFILTRATION =    51385780.2676          INFILTRATION =           0.8475

          OUT:                                     OUT:
          ----                                     ----
              UZF ET =     8207141.4957                UZF ET =           4.5961
        UZF RECHARGE =       73224.0000          UZF RECHARGE =       0.0000E+00

            IN - OUT =    43105414.7719              IN - OUT =          -3.7486

          STORAGE:                                 STORAGE:
          --------                                 --------
      STORAGE CHANGE =    43108057.0138        STORAGE CHANGE =          -3.7396

 PERCENT DISCREPANCY IS DIFFERENCE BETWEEN IN-OUT MINUS CHANGE IN STORAGE
 DIVIDED BY THE AVERAGE OF IN AND OUT TIMES 100

 PERCENT DISCREPANCY =          -0.00     PERCENT DISCREPANCY =          -0.20






 

            AG WELLS      PERIOD    5   STEP   4
 AG WELL      1   LAYER   1   ROW     6   COL     4   RATE     0.00000    
 AG WELL      2   LAYER   1   ROW     6   COL     5   RATE     0.00000    
 AG WELL      3   LAYER   1   ROW     7   COL     4   RATE     0.00000    
 AG WELL      4   LAYER   1   ROW     7   COL     5   RATE     0.00000    
 AG WELL      5   LAYER   1   ROW     8   COL     4   RATE     0.00000    
 AG WELL      6   LAYER   1   ROW     8   COL     5   RATE     0.00000    
 
 

   DIVERSION SEGMENTS     PERIOD    5   STEP   4
 SEGMENT      9   RATE    1.106598E-07
 
 

        SW IRRIGATION     PERIOD    5   STEP   4
 SEGMENT      9   ROW     6   COL     4   RATE    1.844368E-08
 SEGMENT      9   ROW     6   COL     5   RATE    1.844368E-08
 SEGMENT      9   ROW     7   COL     4   RATE    1.844368E-08
 SEGMENT      9   ROW     7   COL     5   RATE    1.844368E-08
 SEGMENT      9   ROW     8   COL     4   RATE    1.844368E-08
 SEGMENT      9   ROW     8   COL     5   RATE    1.844368E-08
 
 

        GW IRRIGATION     PERIOD    5   STEP   4
 AG WELL      1   ROW     6   COL     4   RATE     0.00000    
 AG WELL      2   ROW     6   COL     5   RATE     0.00000    
 AG WELL      3   ROW     7   COL     4   RATE     0.00000    
 AG WELL      4   ROW     7   COL     5   RATE     0.00000    
 AG WELL      5   ROW     8   COL     4   RATE     0.00000    
 AG WELL      6   ROW     8   COL     5   RATE     0.00000    
 
1
  VOLUMETRIC BUDGET FOR AGRICULTURAL FIELDS AT  END OF TIME STEP    4, STRESS PERIOD   5
  ------------------------------------------------------------------------------

     CUMULATIVE VOLUMES      L**3       RATES FOR THIS TIME STEP      L**3/T
     ------------------                 ------------------------

           IN:                                      IN:
           ---                                      ---
               AG WELLS  =    42593840.0000                 AG WELLS  =           0.0000
      DIVERSION SEGMENTS =     1734720.3750        DIVERSION SEGMENTS =       1.1066E-07
           GW IRRIGATION =           0.0000             GW IRRIGATION =           0.0000
           SW IRRIGATION =           0.0000             SW IRRIGATION =           0.0000
        SYSTEM LOSSES GW =           0.0000          SYSTEM LOSSES GW =           0.0000
        SYSTEM LOSSES SW =           0.0000          SYSTEM LOSSES SW =           0.0000

                TOTAL IN =    44328560.0000                  TOTAL IN =       1.1066E-07

          OUT:                                     OUT:
          ----                                     ----
               AG WELLS  =           0.0000                 AG WELLS  =           0.0000
      DIVERSION SEGMENTS =           0.0000        DIVERSION SEGMENTS =           0.0000
           GW IRRIGATION =    42593840.0000             GW IRRIGATION =           0.0000
           SW IRRIGATION =     1734755.0000             SW IRRIGATION =       1.1066E-07
        SYSTEM LOSSES GW =           0.0000          SYSTEM LOSSES GW =           0.0000
        SYSTEM LOSSES SW =           0.0000          SYSTEM LOSSES SW =           0.0000

               TOTAL OUT =    44328596.0000                 TOTAL OUT =       1.1066E-07

                IN - OUT =         -36.0000                  IN - OUT =      -2.2098E-12

     PERCENT DISCREPANCY =          -0.00         PERCENT DISCREPANCY =          -0.00



1
  VOLUMETRIC BUDGET FOR ENTIRE MODEL AT END OF TIME STEP    4, STRESS PERIOD   5
  ------------------------------------------------------------------------------

     CUMULATIVE VOLUMES      L**3       RATES FOR THIS TIME STEP      L**3/T
     ------------------                 ------------------------

           IN:                                      IN:
           ---                                      ---
             STORAGE     =    48485372.0000               STORAGE     =           8.8387
       CONSTANT HEAD     =           0.0000         CONSTANT HEAD     =           0.0000
     HEAD DEP BOUNDS     =     2396733.7500       HEAD DEP BOUNDS     =           0.2879
      STREAM LEAKAGE     =    97385440.0000        STREAM LEAKAGE     =          11.2904
        UZF RECHARGE     =       73223.9531          UZF RECHARGE     =           0.0000
               GW ET     =           0.0000                 GW ET     =           0.0000
     SURFACE LEAKAGE     =           0.0000       SURFACE LEAKAGE     =           0.0000
           AG WELLS      =           0.0000             AG WELLS      =           0.0000

                TOTAL IN =   148340768.0000                  TOTAL IN =          20.4170

          OUT:                                     OUT:
          ----                                     ----
             STORAGE     =    19017104.0000               STORAGE     =           9.0787
       CONSTANT HEAD     =           0.0000         CONSTANT HEAD     =           0.0000
     HEAD DEP BOUNDS     =     2399329.7500       HEAD DEP BOUNDS     =           0.2897
      STREAM LEAKAGE     =    84334256.0000        STREAM LEAKAGE     =          11.0486
        UZF RECHARGE     =           0.0000          UZF RECHARGE     =           0.0000
               GW ET     =           0.0000                 GW ET     =           0.0000
     SURFACE LEAKAGE     =           0.0000       SURFACE LEAKAGE     =           0.0000
           AG WELLS      =    42593840.0000             AG WELLS      =           0.0000

               TOTAL OUT =   148344528.0000                 TOTAL OUT =          20.4170

                IN - OUT =       -3760.0000                  IN - OUT =       3.8147E-06

     PERCENT DISCREPANCY =          -0.00         PERCENT DISCREPANCY =           0.00






         TIME SUMMARY AT END OF TIME STEP    4 IN STRESS PERIOD    5
                    SECONDS     MINUTES      HOURS       DAYS        YEARS
                    -----------------------------------------------------------
   TIME STEP LENGTH  87667.      1461.1      24.352      1.0147     2.77799E-03
 STRESS PERIOD TIME 3.50667E+05  5844.4      97.407      4.0586     1.11120E-02
         TOTAL TIME 8.32706E+06 1.38784E+05  2313.1      96.378     0.26387    
1
 
 SOLVING FOR HEAD 
                                                   Max.-Head-Change                         Max.-Flux-Residual
  Residual-Control   Outer-Iter.   Inner-Iter.     Column Row Layer    Maximum-Head-Change  Column Row Layer    Maximum-Flux-Residual          L2-NORM 
          0                 1           2             5    8     1       0.3669267100E-01       5    8    1         0.2017366620E+01      0.4416444114E+01
          0                 2           2             5    8     1      -0.3569176082E-02       5    8    1        -0.2017352031E+00      0.4415248509E+00
          0                 3           2             5    8     1       0.2430478679E-03       5    8    1         0.1412148429E-01      0.3089866522E-01
          0                 4           1             5    8     1      -0.9671101115E-05       5    8    1        -0.5775694476E-03      0.1263260969E-02

    ------------------------------------------------
       NWT REQUIRED            4 OUTER ITERATIONS 
       AND A TOTAL OF          7 INNER ITERATIONS.
    ------------------------------------------------

 NO OUTPUT CONTROL FOR STRESS PERIOD    5   TIME STEP    5
 
 SOLVING FOR HEAD 
                                                   Max.-Head-Change                         Max.-Flux-Residual
  Residual-Control   Outer-Iter.   Inner-Iter.     Column Row Layer    Maximum-Head-Change  Column Row Layer    Maximum-Flux-Residual          L2-NORM 
          0                 1           2             5    8     1       0.3471360377E-01       5    8    1         0.1906796178E+01      0.4213168993E+01
          0                 2           2             5    8     1      -0.3376668169E-02       5    8    1        -0.1906783101E+00      0.4212315082E+00
          0                 3           2             5    8     1       0.2299387688E-03       5    8    1         0.1334749984E-01      0.2947898498E-01
          0                 4           1             5    8     1      -0.9149477875E-05       5    8    1        -0.5459134436E-03      0.1205251120E-02

    ------------------------------------------------
       NWT REQUIRED            4 OUTER ITERATIONS 
       AND A TOTAL OF          7 INNER ITERATIONS.
    ------------------------------------------------

 OUTPUT CONTROL FOR STRESS PERIOD    5   TIME STEP    6
    PRINT BUDGET
    SAVE BUDGET
 UBDSV1 SAVING "         STORAGE" ON UNIT 102 AT TIME STEP  6, STRESS PERIOD   5
 UBDSV2 SAVING "   CONSTANT HEAD" ON UNIT 102 AT TIME STEP  6, STRESS PERIOD   5
 UBDSV1 SAVING "FLOW RIGHT FACE " ON UNIT 102 AT TIME STEP  6, STRESS PERIOD   5
 UBDSV1 SAVING "FLOW FRONT FACE " ON UNIT 102 AT TIME STEP  6, STRESS PERIOD   5

  HEAD DEP BOUNDS   PERIOD    5   STEP     6
 BOUNDARY      1   LAYER   1   ROW    13   COL     1   RATE   -0.289490    
 BOUNDARY      2   LAYER   1   ROW    14   COL     9   RATE    0.287886    



 STREAM LISTING     PERIOD      5   STEP        6

 LAYER ROW COL. STREAM  RCH.  FLOW INTO     FLOW TO   FLOW OUT OF   OVRLND.     DIRECT     STREAM       STREAM     STREAM     STREAM   STREAMBED  STREAMBED
                SEG.NO.  NO.  STRM. RCH.    AQUIFER    STRM. RCH.    RUNOFF     PRECIP       ET          HEAD       DEPTH      WIDTH   CONDCTNC.   GRADIENT

   1    1    1     1     1    1.0500E+01  1.5271E-01   1.0347E+01  0.000E+00  0.000E+00  0.000E+00  1.09396E+03  9.109E-01  8.677E+00  3.905E-02  1.304E+00
   1    2    2     1     2    1.0347E+01  2.3505E-01   1.0112E+01  0.000E+00  0.000E+00  0.000E+00  1.08896E+03  9.059E-01  8.597E+00  6.018E-02  1.302E+00
   1    3    3     1     3    1.0112E+01  1.9904E-01   9.9132E+00  0.000E+00  0.000E+00  0.000E+00  1.08332E+03  9.003E-01  8.505E+00  5.103E-02  1.300E+00
   1    3    4     1     4    9.9132E+00  1.8195E-01   9.7313E+00  0.000E+00  0.000E+00  0.000E+00  1.07830E+03  8.947E-01  8.417E+00  4.672E-02  1.298E+00
   1    4    5     2     1    7.7313E+00  2.8007E-01   7.4512E+00  0.000E+00  0.000E+00  0.000E+00  1.07252E+03  5.907E-01  1.200E+01  7.800E-02  1.197E+00
   1    5    6     2     2    7.4512E+00  2.1474E-01   7.2365E+00  0.000E+00  0.000E+00  0.000E+00  1.06709E+03  5.790E-01  1.200E+01  6.000E-02  1.193E+00
   1    6    6     2     3    7.2365E+00  2.1413E-01   7.0224E+00  0.000E+00  0.000E+00  0.000E+00  1.06236E+03  5.688E-01  1.200E+01  6.000E-02  1.190E+00
   1    7    6     2     4    7.0224E+00  2.1351E-01   6.8088E+00  0.000E+00  0.000E+00  0.000E+00  1.05763E+03  5.585E-01  1.200E+01  6.000E-02  1.186E+00
   1    8    6     2     5    6.8088E+00  2.1289E-01   6.5960E+00  0.000E+00  0.000E+00  0.000E+00  1.05291E+03  5.481E-01  1.200E+01  6.000E-02  1.183E+00
   1    3    5     3     1    2.0000E+00  2.8252E-01   1.7175E+00  0.000E+00  0.000E+00  0.000E+00  1.07555E+03  1.909E+00  9.636E+00  7.227E-02  1.955E+00
   1    3    6     3     2    1.7175E+00  2.4905E-01   1.4684E+00  0.000E+00  0.000E+00  0.000E+00  1.07264E+03  1.727E+00  8.909E+00  6.682E-02  1.864E+00
   1    3    7     3     3    1.4684E+00  1.9718E-01   1.2712E+00  0.000E+00  0.000E+00  0.000E+00  1.06987E+03  1.555E+00  8.218E+00  5.547E-02  1.777E+00
   1    4    8     3     4    1.2712E+00  2.2567E-01   1.0456E+00  0.000E+00  0.000E+00  0.000E+00  1.06682E+03  1.364E+00  7.455E+00  6.709E-02  1.682E+00
   1    5    8     3     5    1.0456E+00  1.5790E-01   8.8768E-01  0.000E+00  0.000E+00  0.000E+00  1.06362E+03  1.164E+00  6.655E+00  4.991E-02  1.582E+00
   1    6    8     3     6    8.8768E-01  5.5980E-02   8.3170E-01  0.000E+00  0.000E+00  0.000E+00  1.06158E+03  1.036E+00  6.145E+00  1.844E-02  1.518E+00
   1    5   10     4     1    1.0000E+01  9.0919E-02   9.9091E+00  0.000E+00  0.000E+00  0.000E+00  1.07836E+03  6.368E-01  1.000E+01  2.500E-02  1.212E+00
   1    5    9     4     2    9.9091E+00  1.8158E-01   9.7275E+00  0.000E+00  0.000E+00  0.000E+00  1.07154E+03  6.315E-01  1.000E+01  5.000E-02  1.211E+00
   1    6    8     4     3    9.7275E+00  1.2689E-01   9.6006E+00  0.000E+00  0.000E+00  0.000E+00  1.06381E+03  6.256E-01  1.000E+01  3.500E-02  1.209E+00
   1    6    8     5     1    1.0432E+01  2.2686E-01   1.0205E+01  0.000E+00  0.000E+00  0.000E+00  1.05868E+03  6.790E-01  1.542E+01  6.166E-02  1.226E+00
   1    7    7     5     2    1.0205E+01  2.7894E-01   9.9265E+00  0.000E+00  0.000E+00  0.000E+00  1.05417E+03  6.732E-01  1.519E+01  7.594E-02  1.224E+00
   1    8    7     5     3    9.9265E+00  1.9221E-01   9.7343E+00  0.000E+00  0.000E+00  0.000E+00  1.04992E+03  6.676E-01  1.497E+01  5.241E-02  1.223E+00
   1    8    6     5     4    9.7343E+00  1.3577E-01   9.5985E+00  0.000E+00  0.000E+00  0.000E+00  1.04691E+03  6.637E-01  1.482E+01  3.706E-02  1.221E+00
   1    9    6     6     1    1.6194E+01  2.3621E-01   1.5958E+01  0.000E+00  0.000E+00  0.000E+00  1.04366E+03  9.369E-01  1.200E+01  6.000E-02  1.312E+00
   1   10    7     6     2    1.5958E+01  2.3572E-01   1.5723E+01  0.000E+00  0.000E+00  0.000E+00  1.03911E+03  9.286E-01  1.200E+01  6.000E-02  1.310E+00
   1   11    7     6     3    1.5723E+01  2.3522E-01   1.5487E+01  0.000E+00  0.000E+00  0.000E+00  1.03456E+03  9.203E-01  1.200E+01  6.000E-02  1.307E+00
   1   12    7     6     4    1.5487E+01  2.3472E-01   1.5253E+01  0.000E+00  0.000E+00  0.000E+00  1.03000E+03  9.120E-01  1.200E+01  6.000E-02  1.304E+00
   1   13    7     6     5    1.5253E+01 -9.1808E-03   1.5262E+01  0.000E+00  0.000E+00  0.000E+00  1.02682E+03  9.079E-01  1.200E+01  2.400E-01 -1.275E-02
   1   14    9     7     1    1.5000E+02  1.3671E+00   1.4863E+02  0.000E+00  0.000E+00  0.000E+00  1.03987E+03  2.288E+00  5.529E+01  5.593E-01  8.148E-01
   1   13    8     7     2    1.4863E+02  1.9169E+00   1.4672E+02  0.000E+00  0.000E+00  0.000E+00  1.03478E+03  2.279E+00  5.526E+01  6.148E-01  1.039E+00
   1   13    7     7     3    1.4672E+02  1.5823E+00   1.4513E+02  0.000E+00  0.000E+00  0.000E+00  1.02969E+03  2.270E+00  5.521E+01  5.584E-01  9.445E-01
   1   13    6     8     1    1.6040E+02  9.6432E-01   1.5943E+02  0.000E+00  0.000E+00  0.000E+00  1.02476E+03  2.885E+00  4.184E+01  4.263E-01  7.540E-01
   1   13    5     8     2    1.5943E+02  2.1316E-01   1.5922E+02  0.000E+00  0.000E+00  0.000E+00  1.01851E+03  2.881E+00  4.178E+01  4.257E-01  1.669E-01
   1   13    4     8     3    1.5922E+02 -2.4260E+00   1.6164E+02  0.000E+00  0.000E+00  0.000E+00  1.01226E+03  2.889E+00  4.189E+01  4.268E+00 -1.895E-01
   1   13    3     8     4    1.6164E+02 -3.7125E+00   1.6536E+02  0.000E+00  0.000E+00  0.000E+00  1.00603E+03  2.909E+00  4.219E+01  4.299E+00 -2.879E-01
   1   13    2     8     5    1.6536E+02 -2.7290E+00   1.6809E+02  0.000E+00  0.000E+00  0.000E+00  9.99806E+02  2.931E+00  4.250E+01  4.330E+00 -2.101E-01
   1   13    1     8     6    1.6809E+02 -2.0810E+00   1.7017E+02  0.000E+00  0.000E+00  0.000E+00  9.94821E+02  2.947E+00  4.272E+01  2.612E+00 -2.655E-01
   1    8    6     9     1    1.1066E-07  0.0000E+00   1.1066E-07  0.000E+00  0.000E+00  0.000E+00  1.07875E+03  3.817E-05  4.000E+00  0.000E+00  1.000E+00
   1    8    5     9     2    1.1066E-07  0.0000E+00   1.1066E-07  0.000E+00  0.000E+00  0.000E+00  1.07825E+03  3.817E-05  4.000E+00  0.000E+00  1.000E+00



 UBDSV3 SAVING "           GW ET" ON UNIT  61 AT TIME STEP  6, STRESS PERIOD   5
 UBDSV3 SAVING "    UZF RECHARGE" ON UNIT  61 AT TIME STEP  6, STRESS PERIOD   5
 UBDSV3 SAVING " SURFACE LEAKAGE" ON UNIT  61 AT TIME STEP  6, STRESS PERIOD   5
 UBDSV3 SAVING "       HORT+DUNN" ON UNIT  61 AT TIME STEP  6, STRESS PERIOD   5
 UBDSV3 SAVING "  STORAGE CHANGE" ON UNIT  61 AT TIME STEP  6, STRESS PERIOD   5


UNSATURATED ZONE PACKAGE VOLUMETRIC BUDGET FOR  TIME STEP     6 STRESS PERIOD    5
  ------------------------------------------------------------------------------



     CUMULATIVE VOLUMES      L**3       RATES FOR THIS TIME STEP      L**3/T
     ------------------                 ------------------------

           IN:                                      IN:
           ---                                      ---
        INFILTRATION =    51534375.2979          INFILTRATION =           0.8475

          OUT:                                     OUT:
          ----                                     ----
              UZF ET =     9007983.6750                UZF ET =           4.5676
        UZF RECHARGE =       73224.0000          UZF RECHARGE =       0.0000E+00

            IN - OUT =    42453167.6229              IN - OUT =          -3.7201

          STORAGE:                                 STORAGE:
          --------                                 --------
      STORAGE CHANGE =    42455736.4630        STORAGE CHANGE =          -3.7205

 PERCENT DISCREPANCY IS DIFFERENCE BETWEEN IN-OUT MINUS CHANGE IN STORAGE
 DIVIDED BY THE AVERAGE OF IN AND OUT TIMES 100

 PERCENT DISCREPANCY =          -0.00     PERCENT DISCREPANCY =           0.01






 

            AG WELLS      PERIOD    5   STEP   6
 AG WELL      1   LAYER   1   ROW     6   COL     4   RATE     0.00000    
 AG WELL      2   LAYER   1   ROW     6   COL     5   RATE     0.00000    
 AG WELL      3   LAYER   1   ROW     7   COL     4   RATE     0.00000    
 AG WELL      4   LAYER   1   ROW     7   COL     5   RATE     0.00000    
 AG WELL      5   LAYER   1   ROW     8   COL     4   RATE     0.00000    
 AG WELL      6   LAYER   1   ROW     8   COL     5   RATE     0.00000    
 
 

   DIVERSION SEGMENTS     PERIOD    5   STEP   6
 SEGMENT      9   RATE    1.106598E-07
 
 

        SW IRRIGATION     PERIOD    5   STEP   6
 SEGMENT      9   ROW     6   COL     4   RATE    1.844368E-08
 SEGMENT      9   ROW     6   COL     5   RATE    1.844368E-08
 SEGMENT      9   ROW     7   COL     4   RATE    1.844368E-08
 SEGMENT      9   ROW     7   COL     5   RATE    1.844368E-08
 SEGMENT      9   ROW     8   COL     4   RATE    1.844368E-08
 SEGMENT      9   ROW     8   COL     5   RATE    1.844368E-08
 
 

        GW IRRIGATION     PERIOD    5   STEP   6
 AG WELL      1   ROW     6   COL     4   RATE     0.00000    
 AG WELL      2   ROW     6   COL     5   RATE     0.00000    
 AG WELL      3   ROW     7   COL     4   RATE     0.00000    
 AG WELL      4   ROW     7   COL     5   RATE     0.00000    
 AG WELL      5   ROW     8   COL     4   RATE     0.00000    
 AG WELL      6   ROW     8   COL     5   RATE     0.00000    
 
1
  VOLUMETRIC BUDGET FOR AGRICULTURAL FIELDS AT  END OF TIME STEP    6, STRESS PERIOD   5
  ------------------------------------------------------------------------------

     CUMULATIVE VOLUMES      L**3       RATES FOR THIS TIME STEP      L**3/T
     ------------------                 ------------------------

           IN:                                      IN:
           ---                                      ---
               AG WELLS  =    42593840.0000                 AG WELLS  =           0.0000
      DIVERSION SEGMENTS =     1734720.3750        DIVERSION SEGMENTS =       1.1066E-07
           GW IRRIGATION =           0.0000             GW IRRIGATION =           0.0000
           SW IRRIGATION =           0.0000             SW IRRIGATION =           0.0000
        SYSTEM LOSSES GW =           0.0000          SYSTEM LOSSES GW =           0.0000
        SYSTEM LOSSES SW =           0.0000          SYSTEM LOSSES SW =           0.0000

                TOTAL IN =    44328560.0000                  TOTAL IN =       1.1066E-07

          OUT:                                     OUT:
          ----                                     ----
               AG WELLS  =           0.0000                 AG WELLS  =           0.0000
      DIVERSION SEGMENTS =           0.0000        DIVERSION SEGMENTS =           0.0000
           GW IRRIGATION =    42593840.0000             GW IRRIGATION =           0.0000
           SW IRRIGATION =     1734755.0000             SW IRRIGATION =       1.1066E-07
        SYSTEM LOSSES GW =           0.0000          SYSTEM LOSSES GW =           0.0000
        SYSTEM LOSSES SW =           0.0000          SYSTEM LOSSES SW =           0.0000

               TOTAL OUT =    44328596.0000                 TOTAL OUT =       1.1066E-07

                IN - OUT =         -36.0000                  IN - OUT =      -2.2098E-12

     PERCENT DISCREPANCY =          -0.00         PERCENT DISCREPANCY =          -0.00



1
  VOLUMETRIC BUDGET FOR ENTIRE MODEL AT END OF TIME STEP    6, STRESS PERIOD   5
  ------------------------------------------------------------------------------

     CUMULATIVE VOLUMES      L**3       RATES FOR THIS TIME STEP      L**3/T
     ------------------                 ------------------------

           IN:                                      IN:
           ---                                      ---
             STORAGE     =    49941620.0000               STORAGE     =           8.1335
       CONSTANT HEAD     =           0.0000         CONSTANT HEAD     =           0.0000
     HEAD DEP BOUNDS     =     2447209.7500       HEAD DEP BOUNDS     =           0.2879
      STREAM LEAKAGE     =    99365120.0000        STREAM LEAKAGE     =          11.2912
        UZF RECHARGE     =       73223.9531          UZF RECHARGE     =           0.0000
               GW ET     =           0.0000                 GW ET     =           0.0000
     SURFACE LEAKAGE     =           0.0000       SURFACE LEAKAGE     =           0.0000
           AG WELLS      =           0.0000             AG WELLS      =           0.0000

                TOTAL IN =   151827168.0000                  TOTAL IN =          19.7126

          OUT:                                     OUT:
          ----                                     ----
             STORAGE     =    20527664.0000               STORAGE     =           8.4653
       CONSTANT HEAD     =           0.0000         CONSTANT HEAD     =           0.0000
     HEAD DEP BOUNDS     =     2450093.7500       HEAD DEP BOUNDS     =           0.2895
      STREAM LEAKAGE     =    86259344.0000        STREAM LEAKAGE     =          10.9578
        UZF RECHARGE     =           0.0000          UZF RECHARGE     =           0.0000
               GW ET     =           0.0000                 GW ET     =           0.0000
     SURFACE LEAKAGE     =           0.0000       SURFACE LEAKAGE     =           0.0000
           AG WELLS      =    42593840.0000             AG WELLS      =           0.0000

               TOTAL OUT =   151830944.0000                 TOTAL OUT =          19.7126

                IN - OUT =       -3776.0000                  IN - OUT =       3.8147E-06

     PERCENT DISCREPANCY =          -0.00         PERCENT DISCREPANCY =           0.00






         TIME SUMMARY AT END OF TIME STEP    6 IN STRESS PERIOD    5
                    SECONDS     MINUTES      HOURS       DAYS        YEARS
                    -----------------------------------------------------------
   TIME STEP LENGTH  87667.      1461.1      24.352      1.0147     2.77799E-03
 STRESS PERIOD TIME 5.26000E+05  8766.7      146.11      6.0880     1.66679E-02
         TOTAL TIME 8.50239E+06 1.41707E+05  2361.8      98.407     0.26942    
1
 
 SOLVING FOR HEAD 
                                                   Max.-Head-Change                         Max.-Flux-Residual
  Residual-Control   Outer-Iter.   Inner-Iter.     Column Row Layer    Maximum-Head-Change  Column Row Layer    Maximum-Flux-Residual          L2-NORM 
          0                 1           2             5    8     1       0.3287147219E-01       5    8    1         0.1803946965E+01      0.4023626058E+01
          0                 2           2             5    8     1      -0.3197481088E-02       5    8    1        -0.1803935345E+00      0.4022860105E+00
          0                 3           2             5    8     1       0.2177367727E-03       5    8    1         0.1262756388E-01      0.2815359510E-01
          0                 4           1             5    8     1      -0.8663949210E-05       5    8    1        -0.5164680292E-03      0.1150679117E-02

    ------------------------------------------------
       NWT REQUIRED            4 OUTER ITERATIONS 
       AND A TOTAL OF          7 INNER ITERATIONS.
    ------------------------------------------------

 OUTPUT CONTROL FOR STRESS PERIOD    5   TIME STEP    7
    PRINT BUDGET
    SAVE BUDGET
 UBDSV1 SAVING "         STORAGE" ON UNIT 102 AT TIME STEP  7, STRESS PERIOD   5
 UBDSV2 SAVING "   CONSTANT HEAD" ON UNIT 102 AT TIME STEP  7, STRESS PERIOD   5
 UBDSV1 SAVING "FLOW RIGHT FACE " ON UNIT 102 AT TIME STEP  7, STRESS PERIOD   5
 UBDSV1 SAVING "FLOW FRONT FACE " ON UNIT 102 AT TIME STEP  7, STRESS PERIOD   5

  HEAD DEP BOUNDS   PERIOD    5   STEP     7
 BOUNDARY      1   LAYER   1   ROW    13   COL     1   RATE   -0.289414    
 BOUNDARY      2   LAYER   1   ROW    14   COL     9   RATE    0.287887    



 STREAM LISTING     PERIOD      5   STEP        7

 LAYER ROW COL. STREAM  RCH.  FLOW INTO     FLOW TO   FLOW OUT OF   OVRLND.     DIRECT     STREAM       STREAM     STREAM     STREAM   STREAMBED  STREAMBED
                SEG.NO.  NO.  STRM. RCH.    AQUIFER    STRM. RCH.    RUNOFF     PRECIP       ET          HEAD       DEPTH      WIDTH   CONDCTNC.   GRADIENT

   1    1    1     1     1    1.0500E+01  1.5271E-01   1.0347E+01  0.000E+00  0.000E+00  0.000E+00  1.09396E+03  9.109E-01  8.677E+00  3.905E-02  1.304E+00
   1    2    2     1     2    1.0347E+01  2.3505E-01   1.0112E+01  0.000E+00  0.000E+00  0.000E+00  1.08896E+03  9.059E-01  8.597E+00  6.018E-02  1.302E+00
   1    3    3     1     3    1.0112E+01  1.9904E-01   9.9132E+00  0.000E+00  0.000E+00  0.000E+00  1.08332E+03  9.003E-01  8.505E+00  5.103E-02  1.300E+00
   1    3    4     1     4    9.9132E+00  1.8195E-01   9.7313E+00  0.000E+00  0.000E+00  0.000E+00  1.07830E+03  8.947E-01  8.417E+00  4.672E-02  1.298E+00
   1    4    5     2     1    7.7313E+00  2.8007E-01   7.4512E+00  0.000E+00  0.000E+00  0.000E+00  1.07252E+03  5.907E-01  1.200E+01  7.800E-02  1.197E+00
   1    5    6     2     2    7.4512E+00  2.1474E-01   7.2365E+00  0.000E+00  0.000E+00  0.000E+00  1.06709E+03  5.790E-01  1.200E+01  6.000E-02  1.193E+00
   1    6    6     2     3    7.2365E+00  2.1413E-01   7.0224E+00  0.000E+00  0.000E+00  0.000E+00  1.06236E+03  5.688E-01  1.200E+01  6.000E-02  1.190E+00
   1    7    6     2     4    7.0224E+00  2.1351E-01   6.8088E+00  0.000E+00  0.000E+00  0.000E+00  1.05763E+03  5.585E-01  1.200E+01  6.000E-02  1.186E+00
   1    8    6     2     5    6.8088E+00  2.1289E-01   6.5960E+00  0.000E+00  0.000E+00  0.000E+00  1.05291E+03  5.481E-01  1.200E+01  6.000E-02  1.183E+00
   1    3    5     3     1    2.0000E+00  2.8252E-01   1.7175E+00  0.000E+00  0.000E+00  0.000E+00  1.07555E+03  1.909E+00  9.636E+00  7.227E-02  1.955E+00
   1    3    6     3     2    1.7175E+00  2.4905E-01   1.4684E+00  0.000E+00  0.000E+00  0.000E+00  1.07264E+03  1.727E+00  8.909E+00  6.682E-02  1.864E+00
   1    3    7     3     3    1.4684E+00  1.9718E-01   1.2712E+00  0.000E+00  0.000E+00  0.000E+00  1.06987E+03  1.555E+00  8.218E+00  5.547E-02  1.777E+00
   1    4    8     3     4    1.2712E+00  2.2567E-01   1.0456E+00  0.000E+00  0.000E+00  0.000E+00  1.06682E+03  1.364E+00  7.455E+00  6.709E-02  1.682E+00
   1    5    8     3     5    1.0456E+00  1.5790E-01   8.8768E-01  0.000E+00  0.000E+00  0.000E+00  1.06362E+03  1.164E+00  6.655E+00  4.991E-02  1.582E+00
   1    6    8     3     6    8.8768E-01  5.5980E-02   8.3170E-01  0.000E+00  0.000E+00  0.000E+00  1.06158E+03  1.036E+00  6.145E+00  1.844E-02  1.518E+00
   1    5   10     4     1    1.0000E+01  9.0919E-02   9.9091E+00  0.000E+00  0.000E+00  0.000E+00  1.07836E+03  6.368E-01  1.000E+01  2.500E-02  1.212E+00
   1    5    9     4     2    9.9091E+00  1.8158E-01   9.7275E+00  0.000E+00  0.000E+00  0.000E+00  1.07154E+03  6.315E-01  1.000E+01  5.000E-02  1.211E+00
   1    6    8     4     3    9.7275E+00  1.2689E-01   9.6006E+00  0.000E+00  0.000E+00  0.000E+00  1.06381E+03  6.256E-01  1.000E+01  3.500E-02  1.209E+00
   1    6    8     5     1    1.0432E+01  2.2686E-01   1.0205E+01  0.000E+00  0.000E+00  0.000E+00  1.05868E+03  6.790E-01  1.542E+01  6.166E-02  1.226E+00
   1    7    7     5     2    1.0205E+01  2.7894E-01   9.9265E+00  0.000E+00  0.000E+00  0.000E+00  1.05417E+03  6.732E-01  1.519E+01  7.594E-02  1.224E+00
   1    8    7     5     3    9.9265E+00  1.9221E-01   9.7343E+00  0.000E+00  0.000E+00  0.000E+00  1.04992E+03  6.676E-01  1.497E+01  5.241E-02  1.223E+00
   1    8    6     5     4    9.7343E+00  1.3577E-01   9.5985E+00  0.000E+00  0.000E+00  0.000E+00  1.04691E+03  6.637E-01  1.482E+01  3.706E-02  1.221E+00
   1    9    6     6     1    1.6194E+01  2.3621E-01   1.5958E+01  0.000E+00  0.000E+00  0.000E+00  1.04366E+03  9.369E-01  1.200E+01  6.000E-02  1.312E+00
   1   10    7     6     2    1.5958E+01  2.3572E-01   1.5723E+01  0.000E+00  0.000E+00  0.000E+00  1.03911E+03  9.286E-01  1.200E+01  6.000E-02  1.310E+00
   1   11    7     6     3    1.5723E+01  2.3522E-01   1.5487E+01  0.000E+00  0.000E+00  0.000E+00  1.03456E+03  9.203E-01  1.200E+01  6.000E-02  1.307E+00
   1   12    7     6     4    1.5487E+01  2.3472E-01   1.5253E+01  0.000E+00  0.000E+00  0.000E+00  1.03000E+03  9.120E-01  1.200E+01  6.000E-02  1.304E+00
   1   13    7     6     5    1.5253E+01 -9.2049E-03   1.5262E+01  0.000E+00  0.000E+00  0.000E+00  1.02682E+03  9.079E-01  1.200E+01  2.400E-01 -1.278E-02
   1   14    9     7     1    1.5000E+02  1.3671E+00   1.4863E+02  0.000E+00  0.000E+00  0.000E+00  1.03987E+03  2.288E+00  5.529E+01  5.593E-01  8.148E-01
   1   13    8     7     2    1.4863E+02  1.9168E+00   1.4672E+02  0.000E+00  0.000E+00  0.000E+00  1.03478E+03  2.279E+00  5.526E+01  6.148E-01  1.039E+00
   1   13    7     7     3    1.4672E+02  1.5823E+00   1.4513E+02  0.000E+00  0.000E+00  0.000E+00  1.02969E+03  2.270E+00  5.521E+01  5.584E-01  9.445E-01
   1   13    6     8     1    1.6040E+02  9.6455E-01   1.5943E+02  0.000E+00  0.000E+00  0.000E+00  1.02476E+03  2.885E+00  4.184E+01  4.263E-01  7.542E-01
   1   13    5     8     2    1.5943E+02  2.1338E-01   1.5922E+02  0.000E+00  0.000E+00  0.000E+00  1.01851E+03  2.881E+00  4.178E+01  4.257E-01  1.671E-01
   1   13    4     8     3    1.5922E+02 -2.4143E+00   1.6163E+02  0.000E+00  0.000E+00  0.000E+00  1.01226E+03  2.889E+00  4.189E+01  4.268E+00 -1.885E-01
   1   13    3     8     4    1.6163E+02 -3.7011E+00   1.6533E+02  0.000E+00  0.000E+00  0.000E+00  1.00603E+03  2.909E+00  4.218E+01  4.299E+00 -2.870E-01
   1   13    2     8     5    1.6533E+02 -2.7164E+00   1.6805E+02  0.000E+00  0.000E+00  0.000E+00  9.99806E+02  2.931E+00  4.249E+01  4.330E+00 -2.091E-01
   1   13    1     8     6    1.6805E+02 -2.0763E+00   1.7013E+02  0.000E+00  0.000E+00  0.000E+00  9.94821E+02  2.946E+00  4.272E+01  2.612E+00 -2.650E-01
   1    8    6     9     1    0.0000E+00  0.0000E+00   0.0000E+00  0.000E+00  0.000E+00  0.000E+00  1.07875E+03  0.000E+00  4.000E+00  0.000E+00  1.000E+00
   1    8    5     9     2    0.0000E+00  0.0000E+00   0.0000E+00  0.000E+00  0.000E+00  0.000E+00  1.07825E+03  0.000E+00  4.000E+00  0.000E+00  1.000E+00



 UBDSV3 SAVING "           GW ET" ON UNIT  61 AT TIME STEP  7, STRESS PERIOD   5
 UBDSV3 SAVING "    UZF RECHARGE" ON UNIT  61 AT TIME STEP  7, STRESS PERIOD   5
 UBDSV3 SAVING " SURFACE LEAKAGE" ON UNIT  61 AT TIME STEP  7, STRESS PERIOD   5
 UBDSV3 SAVING "       HORT+DUNN" ON UNIT  61 AT TIME STEP  7, STRESS PERIOD   5
 UBDSV3 SAVING "  STORAGE CHANGE" ON UNIT  61 AT TIME STEP  7, STRESS PERIOD   5


UNSATURATED ZONE PACKAGE VOLUMETRIC BUDGET FOR  TIME STEP     7 STRESS PERIOD    5
  ------------------------------------------------------------------------------



     CUMULATIVE VOLUMES      L**3       RATES FOR THIS TIME STEP      L**3/T
     ------------------                 ------------------------

           IN:                                      IN:
           ---                                      ---
        INFILTRATION =    51608672.7937          INFILTRATION =           0.8475

          OUT:                                     OUT:
          ----                                     ----
              UZF ET =     9408406.8974                UZF ET =           4.5676
        UZF RECHARGE =       73224.0000          UZF RECHARGE =       0.0000E+00

            IN - OUT =    42127041.8962              IN - OUT =          -3.7201

          STORAGE:                                 STORAGE:
          --------                                 --------
      STORAGE CHANGE =    42129574.0361        STORAGE CHANGE =          -3.7205

 PERCENT DISCREPANCY IS DIFFERENCE BETWEEN IN-OUT MINUS CHANGE IN STORAGE
 DIVIDED BY THE AVERAGE OF IN AND OUT TIMES 100

 PERCENT DISCREPANCY =          -0.00     PERCENT DISCREPANCY =           0.01






 

            AG WELLS      PERIOD    5   STEP   7
 AG WELL      1   LAYER   1   ROW     6   COL     4   RATE     0.00000    
 AG WELL      2   LAYER   1   ROW     6   COL     5   RATE     0.00000    
 AG WELL      3   LAYER   1   ROW     7   COL     4   RATE     0.00000    
 AG WELL      4   LAYER   1   ROW     7   COL     5   RATE     0.00000    
 AG WELL      5   LAYER   1   ROW     8   COL     4   RATE     0.00000    
 AG WELL      6   LAYER   1   ROW     8   COL     5   RATE     0.00000    
 
 

   DIVERSION SEGMENTS     PERIOD    5   STEP   7
 SEGMENT      9   RATE     0.00000    
 
 

        SW IRRIGATION     PERIOD    5   STEP   7
 SEGMENT      9   ROW     6   COL     4   RATE     0.00000    
 SEGMENT      9   ROW     6   COL     5   RATE     0.00000    
 SEGMENT      9   ROW     7   COL     4   RATE     0.00000    
 SEGMENT      9   ROW     7   COL     5   RATE     0.00000    
 SEGMENT      9   ROW     8   COL     4   RATE     0.00000    
 SEGMENT      9   ROW     8   COL     5   RATE     0.00000    
 
 

        GW IRRIGATION     PERIOD    5   STEP   7
 AG WELL      1   ROW     6   COL     4   RATE     0.00000    
 AG WELL      2   ROW     6   COL     5   RATE     0.00000    
 AG WELL      3   ROW     7   COL     4   RATE     0.00000    
 AG WELL      4   ROW     7   COL     5   RATE     0.00000    
 AG WELL      5   ROW     8   COL     4   RATE     0.00000    
 AG WELL      6   ROW     8   COL     5   RATE     0.00000    
 
1
  VOLUMETRIC BUDGET FOR AGRICULTURAL FIELDS AT  END OF TIME STEP    7, STRESS PERIOD   5
  ------------------------------------------------------------------------------

     CUMULATIVE VOLUMES      L**3       RATES FOR THIS TIME STEP      L**3/T
     ------------------                 ------------------------

           IN:                                      IN:
           ---                                      ---
               AG WELLS  =    42593840.0000                 AG WELLS  =           0.0000
      DIVERSION SEGMENTS =     1734720.3750        DIVERSION SEGMENTS =           0.0000
           GW IRRIGATION =           0.0000             GW IRRIGATION =           0.0000
           SW IRRIGATION =           0.0000             SW IRRIGATION =           0.0000
        SYSTEM LOSSES GW =           0.0000          SYSTEM LOSSES GW =           0.0000
        SYSTEM LOSSES SW =           0.0000          SYSTEM LOSSES SW =           0.0000

                TOTAL IN =    44328560.0000                  TOTAL IN =           0.0000

          OUT:                                     OUT:
          ----                                     ----
               AG WELLS  =           0.0000                 AG WELLS  =           0.0000
      DIVERSION SEGMENTS =           0.0000        DIVERSION SEGMENTS =           0.0000
           GW IRRIGATION =    42593840.0000             GW IRRIGATION =           0.0000
           SW IRRIGATION =     1734755.0000             SW IRRIGATION =           0.0000
        SYSTEM LOSSES GW =           0.0000          SYSTEM LOSSES GW =           0.0000
        SYSTEM LOSSES SW =           0.0000          SYSTEM LOSSES SW =           0.0000

               TOTAL OUT =    44328596.0000                 TOTAL OUT =           0.0000

                IN - OUT =         -36.0000                  IN - OUT =           0.0000

     PERCENT DISCREPANCY =          -0.00         PERCENT DISCREPANCY =           0.00



1
  VOLUMETRIC BUDGET FOR ENTIRE MODEL AT END OF TIME STEP    7, STRESS PERIOD   5
  ------------------------------------------------------------------------------

     CUMULATIVE VOLUMES      L**3       RATES FOR THIS TIME STEP      L**3/T
     ------------------                 ------------------------

           IN:                                      IN:
           ---                                      ---
             STORAGE     =    50626352.0000               STORAGE     =           7.8106
       CONSTANT HEAD     =           0.0000         CONSTANT HEAD     =           0.0000
     HEAD DEP BOUNDS     =     2472447.7500       HEAD DEP BOUNDS     =           0.2879
      STREAM LEAKAGE     =   100355008.0000        STREAM LEAKAGE     =          11.2915
        UZF RECHARGE     =       73223.9531          UZF RECHARGE     =           0.0000
               GW ET     =           0.0000                 GW ET     =           0.0000
     SURFACE LEAKAGE     =           0.0000       SURFACE LEAKAGE     =           0.0000
           AG WELLS      =           0.0000             AG WELLS      =           0.0000

                TOTAL IN =   153527024.0000                  TOTAL IN =          19.3901

          OUT:                                     OUT:
          ----                                     ----
             STORAGE     =    21245064.0000               STORAGE     =           8.1833
       CONSTANT HEAD     =           0.0000         CONSTANT HEAD     =           0.0000
     HEAD DEP BOUNDS     =     2475465.7500       HEAD DEP BOUNDS     =           0.2894
      STREAM LEAKAGE     =    87216432.0000        STREAM LEAKAGE     =          10.9174
        UZF RECHARGE     =           0.0000          UZF RECHARGE     =           0.0000
               GW ET     =           0.0000                 GW ET     =           0.0000
     SURFACE LEAKAGE     =           0.0000       SURFACE LEAKAGE     =           0.0000
           AG WELLS      =    42593840.0000             AG WELLS      =           0.0000

               TOTAL OUT =   153530800.0000                 TOTAL OUT =          19.3901

                IN - OUT =       -3776.0000                  IN - OUT =       7.6294E-06

     PERCENT DISCREPANCY =          -0.00         PERCENT DISCREPANCY =           0.00






         TIME SUMMARY AT END OF TIME STEP    7 IN STRESS PERIOD    5
                    SECONDS     MINUTES      HOURS       DAYS        YEARS
                    -----------------------------------------------------------
   TIME STEP LENGTH  87667.      1461.1      24.352      1.0147     2.77799E-03
 STRESS PERIOD TIME 6.13667E+05  10228.      170.46      7.1026     1.94459E-02
         TOTAL TIME 8.59006E+06 1.43168E+05  2386.1      99.422     0.27220    
1
 
 SOLVING FOR HEAD 
                                                   Max.-Head-Change                         Max.-Flux-Residual
  Residual-Control   Outer-Iter.   Inner-Iter.     Column Row Layer    Maximum-Head-Change  Column Row Layer    Maximum-Flux-Residual          L2-NORM 
          0                 1           2             5    6     1       0.3123066944E-01       5    8    1         0.1708221321E+01      0.3846692005E+01
          0                 2           2             5    6     1      -0.3039464302E-02       5    8    1        -0.1709081804E+00      0.3847705626E+00
          0                 3           2             5    6     1       0.2069763707E-03       5    8    1         0.1196358760E-01      0.2692964392E-01
          0                 4           1             5    6     1      -0.8235769516E-05       5    8    1        -0.4893113542E-03      0.1099780110E-02

    ------------------------------------------------
       NWT REQUIRED            4 OUTER ITERATIONS 
       AND A TOTAL OF          7 INNER ITERATIONS.
    ------------------------------------------------

 OUTPUT CONTROL FOR STRESS PERIOD    5   TIME STEP    8
    PRINT BUDGET
    SAVE BUDGET
 UBDSV1 SAVING "         STORAGE" ON UNIT 102 AT TIME STEP  8, STRESS PERIOD   5
 UBDSV2 SAVING "   CONSTANT HEAD" ON UNIT 102 AT TIME STEP  8, STRESS PERIOD   5
 UBDSV1 SAVING "FLOW RIGHT FACE " ON UNIT 102 AT TIME STEP  8, STRESS PERIOD   5
 UBDSV1 SAVING "FLOW FRONT FACE " ON UNIT 102 AT TIME STEP  8, STRESS PERIOD   5

  HEAD DEP BOUNDS   PERIOD    5   STEP     8
 BOUNDARY      1   LAYER   1   ROW    13   COL     1   RATE   -0.289341    
 BOUNDARY      2   LAYER   1   ROW    14   COL     9   RATE    0.287888    



 STREAM LISTING     PERIOD      5   STEP        8

 LAYER ROW COL. STREAM  RCH.  FLOW INTO     FLOW TO   FLOW OUT OF   OVRLND.     DIRECT     STREAM       STREAM     STREAM     STREAM   STREAMBED  STREAMBED
                SEG.NO.  NO.  STRM. RCH.    AQUIFER    STRM. RCH.    RUNOFF     PRECIP       ET          HEAD       DEPTH      WIDTH   CONDCTNC.   GRADIENT

   1    1    1     1     1    1.0500E+01  1.5271E-01   1.0347E+01  0.000E+00  0.000E+00  0.000E+00  1.09396E+03  9.109E-01  8.677E+00  3.905E-02  1.304E+00
   1    2    2     1     2    1.0347E+01  2.3505E-01   1.0112E+01  0.000E+00  0.000E+00  0.000E+00  1.08896E+03  9.059E-01  8.597E+00  6.018E-02  1.302E+00
   1    3    3     1     3    1.0112E+01  1.9904E-01   9.9132E+00  0.000E+00  0.000E+00  0.000E+00  1.08332E+03  9.003E-01  8.505E+00  5.103E-02  1.300E+00
   1    3    4     1     4    9.9132E+00  1.8195E-01   9.7313E+00  0.000E+00  0.000E+00  0.000E+00  1.07830E+03  8.947E-01  8.417E+00  4.672E-02  1.298E+00
   1    4    5     2     1    7.7313E+00  2.8007E-01   7.4512E+00  0.000E+00  0.000E+00  0.000E+00  1.07252E+03  5.907E-01  1.200E+01  7.800E-02  1.197E+00
   1    5    6     2     2    7.4512E+00  2.1474E-01   7.2365E+00  0.000E+00  0.000E+00  0.000E+00  1.06709E+03  5.790E-01  1.200E+01  6.000E-02  1.193E+00
   1    6    6     2     3    7.2365E+00  2.1413E-01   7.0224E+00  0.000E+00  0.000E+00  0.000E+00  1.06236E+03  5.688E-01  1.200E+01  6.000E-02  1.190E+00
   1    7    6     2     4    7.0224E+00  2.1351E-01   6.8088E+00  0.000E+00  0.000E+00  0.000E+00  1.05763E+03  5.585E-01  1.200E+01  6.000E-02  1.186E+00
   1    8    6     2     5    6.8088E+00  2.1289E-01   6.5960E+00  0.000E+00  0.000E+00  0.000E+00  1.05291E+03  5.481E-01  1.200E+01  6.000E-02  1.183E+00
   1    3    5     3     1    2.0000E+00  2.8252E-01   1.7175E+00  0.000E+00  0.000E+00  0.000E+00  1.07555E+03  1.909E+00  9.636E+00  7.227E-02  1.955E+00
   1    3    6     3     2    1.7175E+00  2.4905E-01   1.4684E+00  0.000E+00  0.000E+00  0.000E+00  1.07264E+03  1.727E+00  8.909E+00  6.682E-02  1.864E+00
   1    3    7     3     3    1.4684E+00  1.9718E-01   1.2712E+00  0.000E+00  0.000E+00  0.000E+00  1.06987E+03  1.555E+00  8.218E+00  5.547E-02  1.777E+00
   1    4    8     3     4    1.2712E+00  2.2567E-01   1.0456E+00  0.000E+00  0.000E+00  0.000E+00  1.06682E+03  1.364E+00  7.455E+00  6.709E-02  1.682E+00
   1    5    8     3     5    1.0456E+00  1.5790E-01   8.8768E-01  0.000E+00  0.000E+00  0.000E+00  1.06362E+03  1.164E+00  6.655E+00  4.991E-02  1.582E+00
   1    6    8     3     6    8.8768E-01  5.5980E-02   8.3170E-01  0.000E+00  0.000E+00  0.000E+00  1.06158E+03  1.036E+00  6.145E+00  1.844E-02  1.518E+00
   1    5   10     4     1    1.0000E+01  9.0919E-02   9.9091E+00  0.000E+00  0.000E+00  0.000E+00  1.07836E+03  6.368E-01  1.000E+01  2.500E-02  1.212E+00
   1    5    9     4     2    9.9091E+00  1.8158E-01   9.7275E+00  0.000E+00  0.000E+00  0.000E+00  1.07154E+03  6.315E-01  1.000E+01  5.000E-02  1.211E+00
   1    6    8     4     3    9.7275E+00  1.2689E-01   9.6006E+00  0.000E+00  0.000E+00  0.000E+00  1.06381E+03  6.256E-01  1.000E+01  3.500E-02  1.209E+00
   1    6    8     5     1    1.0432E+01  2.2686E-01   1.0205E+01  0.000E+00  0.000E+00  0.000E+00  1.05868E+03  6.790E-01  1.542E+01  6.166E-02  1.226E+00
   1    7    7     5     2    1.0205E+01  2.7894E-01   9.9265E+00  0.000E+00  0.000E+00  0.000E+00  1.05417E+03  6.732E-01  1.519E+01  7.594E-02  1.224E+00
   1    8    7     5     3    9.9265E+00  1.9221E-01   9.7343E+00  0.000E+00  0.000E+00  0.000E+00  1.04992E+03  6.676E-01  1.497E+01  5.241E-02  1.223E+00
   1    8    6     5     4    9.7343E+00  1.3577E-01   9.5985E+00  0.000E+00  0.000E+00  0.000E+00  1.04691E+03  6.637E-01  1.482E+01  3.706E-02  1.221E+00
   1    9    6     6     1    1.6193E+01  2.3621E-01   1.5957E+01  0.000E+00  0.000E+00  0.000E+00  1.04366E+03  9.368E-01  1.200E+01  6.000E-02  1.312E+00
   1   10    7     6     2    1.5957E+01  2.3571E-01   1.5721E+01  0.000E+00  0.000E+00  0.000E+00  1.03911E+03  9.285E-01  1.200E+01  6.000E-02  1.310E+00
   1   11    7     6     3    1.5721E+01  2.3521E-01   1.5486E+01  0.000E+00  0.000E+00  0.000E+00  1.03456E+03  9.202E-01  1.200E+01  6.000E-02  1.307E+00
   1   12    7     6     4    1.5486E+01  2.3471E-01   1.5251E+01  0.000E+00  0.000E+00  0.000E+00  1.03000E+03  9.119E-01  1.200E+01  6.000E-02  1.304E+00
   1   13    7     6     5    1.5251E+01 -9.2402E-03   1.5260E+01  0.000E+00  0.000E+00  0.000E+00  1.02682E+03  9.079E-01  1.200E+01  2.400E-01 -1.283E-02
   1   14    9     7     1    1.5000E+02  1.3671E+00   1.4863E+02  0.000E+00  0.000E+00  0.000E+00  1.03987E+03  2.288E+00  5.529E+01  5.593E-01  8.148E-01
   1   13    8     7     2    1.4863E+02  1.9168E+00   1.4672E+02  0.000E+00  0.000E+00  0.000E+00  1.03478E+03  2.279E+00  5.526E+01  6.148E-01  1.039E+00
   1   13    7     7     3    1.4672E+02  1.5822E+00   1.4513E+02  0.000E+00  0.000E+00  0.000E+00  1.02969E+03  2.270E+00  5.521E+01  5.584E-01  9.445E-01
   1   13    6     8     1    1.6039E+02  9.6477E-01   1.5943E+02  0.000E+00  0.000E+00  0.000E+00  1.02476E+03  2.885E+00  4.184E+01  4.263E-01  7.543E-01
   1   13    5     8     2    1.5943E+02  2.1359E-01   1.5922E+02  0.000E+00  0.000E+00  0.000E+00  1.01851E+03  2.881E+00  4.178E+01  4.257E-01  1.672E-01
   1   13    4     8     3    1.5922E+02 -2.4037E+00   1.6162E+02  0.000E+00  0.000E+00  0.000E+00  1.01226E+03  2.889E+00  4.189E+01  4.268E+00 -1.877E-01
   1   13    3     8     4    1.6162E+02 -3.6907E+00   1.6531E+02  0.000E+00  0.000E+00  0.000E+00  1.00603E+03  2.909E+00  4.218E+01  4.299E+00 -2.862E-01
   1   13    2     8     5    1.6531E+02 -2.7048E+00   1.6801E+02  0.000E+00  0.000E+00  0.000E+00  9.99805E+02  2.930E+00  4.249E+01  4.330E+00 -2.082E-01
   1   13    1     8     6    1.6801E+02 -2.0718E+00   1.7009E+02  0.000E+00  0.000E+00  0.000E+00  9.94821E+02  2.946E+00  4.272E+01  2.612E+00 -2.644E-01
   1    8    6     9     1    1.5675E-03  0.0000E+00   1.5675E-03  0.000E+00  0.000E+00  0.000E+00  1.07876E+03  1.181E-02  4.000E+00  0.000E+00  1.004E+00
   1    8    5     9     2    1.5675E-03  0.0000E+00   1.5675E-03  0.000E+00  0.000E+00  0.000E+00  1.07826E+03  1.181E-02  4.000E+00  0.000E+00  1.004E+00



 UBDSV3 SAVING "           GW ET" ON UNIT  61 AT TIME STEP  8, STRESS PERIOD   5
 UBDSV3 SAVING "    UZF RECHARGE" ON UNIT  61 AT TIME STEP  8, STRESS PERIOD   5
 UBDSV3 SAVING " SURFACE LEAKAGE" ON UNIT  61 AT TIME STEP  8, STRESS PERIOD   5
 UBDSV3 SAVING "       HORT+DUNN" ON UNIT  61 AT TIME STEP  8, STRESS PERIOD   5
 UBDSV3 SAVING "  STORAGE CHANGE" ON UNIT  61 AT TIME STEP  8, STRESS PERIOD   5


UNSATURATED ZONE PACKAGE VOLUMETRIC BUDGET FOR  TIME STEP     8 STRESS PERIOD    5
  ------------------------------------------------------------------------------



     CUMULATIVE VOLUMES      L**3       RATES FOR THIS TIME STEP      L**3/T
     ------------------                 ------------------------

           IN:                                      IN:
           ---                                      ---
        INFILTRATION =    51683107.7110          INFILTRATION =           0.8491

          OUT:                                     OUT:
          ----                                     ----
              UZF ET =     9808778.5808                UZF ET =           4.5670
        UZF RECHARGE =       73224.0000          UZF RECHARGE =       0.0000E+00

            IN - OUT =    41801105.1302              IN - OUT =          -3.7179

          STORAGE:                                 STORAGE:
          --------                                 --------
      STORAGE CHANGE =    41803632.6115        STORAGE CHANGE =          -3.7180

 PERCENT DISCREPANCY IS DIFFERENCE BETWEEN IN-OUT MINUS CHANGE IN STORAGE
 DIVIDED BY THE AVERAGE OF IN AND OUT TIMES 100

 PERCENT DISCREPANCY =          -0.00     PERCENT DISCREPANCY =           0.00






 

            AG WELLS      PERIOD    5   STEP   8
 AG WELL      1   LAYER   1   ROW     6   COL     4   RATE   -8.708474E-05
 AG WELL      2   LAYER   1   ROW     6   COL     5   RATE   -8.708474E-05
 AG WELL      3   LAYER   1   ROW     7   COL     4   RATE   -8.708474E-05
 AG WELL      4   LAYER   1   ROW     7   COL     5   RATE   -8.708474E-05
 AG WELL      5   LAYER   1   ROW     8   COL     4   RATE   -8.708474E-05
 AG WELL      6   LAYER   1   ROW     8   COL     5   RATE   -8.708474E-05
 
 

   DIVERSION SEGMENTS     PERIOD    5   STEP   8
 SEGMENT      9   RATE    1.567525E-03
 
 

        SW IRRIGATION     PERIOD    5   STEP   8
 SEGMENT      9   ROW     6   COL     4   RATE    1.741730E-04
 SEGMENT      9   ROW     6   COL     5   RATE    1.741730E-04
 SEGMENT      9   ROW     7   COL     4   RATE    1.741730E-04
 SEGMENT      9   ROW     7   COL     5   RATE    1.741730E-04
 SEGMENT      9   ROW     8   COL     4   RATE    1.741730E-04
 SEGMENT      9   ROW     8   COL     5   RATE    1.741730E-04
 
 

        GW IRRIGATION     PERIOD    5   STEP   8
 AG WELL      1   ROW     6   COL     4   RATE    8.708473E-05
 AG WELL      2   ROW     6   COL     5   RATE    8.708473E-05
 AG WELL      3   ROW     7   COL     4   RATE    8.708473E-05
 AG WELL      4   ROW     7   COL     5   RATE    8.708473E-05
 AG WELL      5   ROW     8   COL     4   RATE    8.708473E-05
 AG WELL      6   ROW     8   COL     5   RATE    8.708473E-05
 
1
  VOLUMETRIC BUDGET FOR AGRICULTURAL FIELDS AT  END OF TIME STEP    8, STRESS PERIOD   5
  ------------------------------------------------------------------------------

     CUMULATIVE VOLUMES      L**3       RATES FOR THIS TIME STEP      L**3/T
     ------------------                 ------------------------

           IN:                                      IN:
           ---                                      ---
               AG WELLS  =    42593884.0000                 AG WELLS  =       5.2251E-04
      DIVERSION SEGMENTS =     1734857.7500        DIVERSION SEGMENTS =       1.5675E-03
           GW IRRIGATION =           0.0000             GW IRRIGATION =           0.0000
           SW IRRIGATION =           0.0000             SW IRRIGATION =           0.0000
        SYSTEM LOSSES GW =           0.0000          SYSTEM LOSSES GW =           0.0000
        SYSTEM LOSSES SW =           0.0000          SYSTEM LOSSES SW =           0.0000

                TOTAL IN =    44328740.0000                  TOTAL IN =       2.0900E-03

          OUT:                                     OUT:
          ----                                     ----
               AG WELLS  =           0.0000                 AG WELLS  =           0.0000
      DIVERSION SEGMENTS =           0.0000        DIVERSION SEGMENTS =           0.0000
           GW IRRIGATION =    42593884.0000             GW IRRIGATION =       5.2251E-04
           SW IRRIGATION =     1734892.3750             SW IRRIGATION =       1.5676E-03
        SYSTEM LOSSES GW =           0.0000          SYSTEM LOSSES GW =           0.0000
        SYSTEM LOSSES SW =           0.0000          SYSTEM LOSSES SW =           0.0000

               TOTAL OUT =    44328776.0000                 TOTAL OUT =       2.0901E-03

                IN - OUT =         -36.0000                  IN - OUT =      -3.1432E-08

     PERCENT DISCREPANCY =          -0.00         PERCENT DISCREPANCY =          -0.00



1
  VOLUMETRIC BUDGET FOR ENTIRE MODEL AT END OF TIME STEP    8, STRESS PERIOD   5
  ------------------------------------------------------------------------------

     CUMULATIVE VOLUMES      L**3       RATES FOR THIS TIME STEP      L**3/T
     ------------------                 ------------------------

           IN:                                      IN:
           ---                                      ---
             STORAGE     =    51284536.0000               STORAGE     =           7.5078
       CONSTANT HEAD     =           0.0000         CONSTANT HEAD     =           0.0000
     HEAD DEP BOUNDS     =     2497686.0000       HEAD DEP BOUNDS     =           0.2879
      STREAM LEAKAGE     =   101344928.0000        STREAM LEAKAGE     =          11.2919
        UZF RECHARGE     =       73223.9531          UZF RECHARGE     =           0.0000
               GW ET     =           0.0000                 GW ET     =           0.0000
     SURFACE LEAKAGE     =           0.0000       SURFACE LEAKAGE     =           0.0000
           AG WELLS      =           0.0000             AG WELLS      =           0.0000

                TOTAL IN =   155200368.0000                  TOTAL IN =          19.0876

          OUT:                                     OUT:
          ----                                     ----
             STORAGE     =    21939172.0000               STORAGE     =           7.9176
       CONSTANT HEAD     =           0.0000         CONSTANT HEAD     =           0.0000
     HEAD DEP BOUNDS     =     2500831.2500       HEAD DEP BOUNDS     =           0.2893
      STREAM LEAKAGE     =    88170256.0000        STREAM LEAKAGE     =          10.8801
        UZF RECHARGE     =           0.0000          UZF RECHARGE     =           0.0000
               GW ET     =           0.0000                 GW ET     =           0.0000
     SURFACE LEAKAGE     =           0.0000       SURFACE LEAKAGE     =           0.0000
           AG WELLS      =    42593884.0000             AG WELLS      =       5.2251E-04

               TOTAL OUT =   155204144.0000                 TOTAL OUT =          19.0876

                IN - OUT =       -3776.0000                  IN - OUT =       5.7220E-06

     PERCENT DISCREPANCY =          -0.00         PERCENT DISCREPANCY =           0.00






         TIME SUMMARY AT END OF TIME STEP    8 IN STRESS PERIOD    5
                    SECONDS     MINUTES      HOURS       DAYS        YEARS
                    -----------------------------------------------------------
   TIME STEP LENGTH  87667.      1461.1      24.352      1.0147     2.77799E-03
 STRESS PERIOD TIME 7.01333E+05  11689.      194.81      8.1173     2.22239E-02
         TOTAL TIME 8.67773E+06 1.44629E+05  2410.5      100.44     0.27498    
1
 
 SOLVING FOR HEAD 
                                                   Max.-Head-Change                         Max.-Flux-Residual
  Residual-Control   Outer-Iter.   Inner-Iter.     Column Row Layer    Maximum-Head-Change  Column Row Layer    Maximum-Flux-Residual          L2-NORM 
          0                 1           2             5    6     1       0.2973889002E-01       5    6    1         0.1623125562E+01      0.3681389112E+01
          0                 2           2             5    6     1      -0.2892768884E-02       5    6    1        -0.1623118096E+00      0.3674472274E+00
          0                 3           2             5    6     1       0.1969869459E-03       5    6    1         0.1136183881E-01      0.2571602090E-01
          0                 4           1             5    6     1      -0.7838281000E-05       5    6    1        -0.4646998118E-03      0.1051433376E-02

    ------------------------------------------------
       NWT REQUIRED            4 OUTER ITERATIONS 
       AND A TOTAL OF          7 INNER ITERATIONS.
    ------------------------------------------------

 OUTPUT CONTROL FOR STRESS PERIOD    5   TIME STEP    9
    PRINT BUDGET
    SAVE BUDGET
 UBDSV1 SAVING "         STORAGE" ON UNIT 102 AT TIME STEP  9, STRESS PERIOD   5
 UBDSV2 SAVING "   CONSTANT HEAD" ON UNIT 102 AT TIME STEP  9, STRESS PERIOD   5
 UBDSV1 SAVING "FLOW RIGHT FACE " ON UNIT 102 AT TIME STEP  9, STRESS PERIOD   5
 UBDSV1 SAVING "FLOW FRONT FACE " ON UNIT 102 AT TIME STEP  9, STRESS PERIOD   5

  HEAD DEP BOUNDS   PERIOD    5   STEP     9
 BOUNDARY      1   LAYER   1   ROW    13   COL     1   RATE   -0.289271    
 BOUNDARY      2   LAYER   1   ROW    14   COL     9   RATE    0.287889    



 STREAM LISTING     PERIOD      5   STEP        9

 LAYER ROW COL. STREAM  RCH.  FLOW INTO     FLOW TO   FLOW OUT OF   OVRLND.     DIRECT     STREAM       STREAM     STREAM     STREAM   STREAMBED  STREAMBED
                SEG.NO.  NO.  STRM. RCH.    AQUIFER    STRM. RCH.    RUNOFF     PRECIP       ET          HEAD       DEPTH      WIDTH   CONDCTNC.   GRADIENT

   1    1    1     1     1    1.0500E+01  1.5271E-01   1.0347E+01  0.000E+00  0.000E+00  0.000E+00  1.09396E+03  9.109E-01  8.677E+00  3.905E-02  1.304E+00
   1    2    2     1     2    1.0347E+01  2.3505E-01   1.0112E+01  0.000E+00  0.000E+00  0.000E+00  1.08896E+03  9.059E-01  8.597E+00  6.018E-02  1.302E+00
   1    3    3     1     3    1.0112E+01  1.9904E-01   9.9132E+00  0.000E+00  0.000E+00  0.000E+00  1.08332E+03  9.003E-01  8.505E+00  5.103E-02  1.300E+00
   1    3    4     1     4    9.9132E+00  1.8195E-01   9.7313E+00  0.000E+00  0.000E+00  0.000E+00  1.07830E+03  8.947E-01  8.417E+00  4.672E-02  1.298E+00
   1    4    5     2     1    7.7313E+00  2.8007E-01   7.4512E+00  0.000E+00  0.000E+00  0.000E+00  1.07252E+03  5.907E-01  1.200E+01  7.800E-02  1.197E+00
   1    5    6     2     2    7.4512E+00  2.1474E-01   7.2365E+00  0.000E+00  0.000E+00  0.000E+00  1.06709E+03  5.790E-01  1.200E+01  6.000E-02  1.193E+00
   1    6    6     2     3    7.2365E+00  2.1413E-01   7.0224E+00  0.000E+00  0.000E+00  0.000E+00  1.06236E+03  5.688E-01  1.200E+01  6.000E-02  1.190E+00
   1    7    6     2     4    7.0224E+00  2.1351E-01   6.8088E+00  0.000E+00  0.000E+00  0.000E+00  1.05763E+03  5.585E-01  1.200E+01  6.000E-02  1.186E+00
   1    8    6     2     5    6.8088E+00  2.1289E-01   6.5960E+00  0.000E+00  0.000E+00  0.000E+00  1.05291E+03  5.481E-01  1.200E+01  6.000E-02  1.183E+00
   1    3    5     3     1    2.0000E+00  2.8252E-01   1.7175E+00  0.000E+00  0.000E+00  0.000E+00  1.07555E+03  1.909E+00  9.636E+00  7.227E-02  1.955E+00
   1    3    6     3     2    1.7175E+00  2.4905E-01   1.4684E+00  0.000E+00  0.000E+00  0.000E+00  1.07264E+03  1.727E+00  8.909E+00  6.682E-02  1.864E+00
   1    3    7     3     3    1.4684E+00  1.9718E-01   1.2712E+00  0.000E+00  0.000E+00  0.000E+00  1.06987E+03  1.555E+00  8.218E+00  5.547E-02  1.777E+00
   1    4    8     3     4    1.2712E+00  2.2567E-01   1.0456E+00  0.000E+00  0.000E+00  0.000E+00  1.06682E+03  1.364E+00  7.455E+00  6.709E-02  1.682E+00
   1    5    8     3     5    1.0456E+00  1.5790E-01   8.8768E-01  0.000E+00  0.000E+00  0.000E+00  1.06362E+03  1.164E+00  6.655E+00  4.991E-02  1.582E+00
   1    6    8     3     6    8.8768E-01  5.5980E-02   8.3170E-01  0.000E+00  0.000E+00  0.000E+00  1.06158E+03  1.036E+00  6.145E+00  1.844E-02  1.518E+00
   1    5   10     4     1    1.0000E+01  9.0919E-02   9.9091E+00  0.000E+00  0.000E+00  0.000E+00  1.07836E+03  6.368E-01  1.000E+01  2.500E-02  1.212E+00
   1    5    9     4     2    9.9091E+00  1.8158E-01   9.7275E+00  0.000E+00  0.000E+00  0.000E+00  1.07154E+03  6.315E-01  1.000E+01  5.000E-02  1.211E+00
   1    6    8     4     3    9.7275E+00  1.2689E-01   9.6006E+00  0.000E+00  0.000E+00  0.000E+00  1.06381E+03  6.256E-01  1.000E+01  3.500E-02  1.209E+00
   1    6    8     5     1    1.0432E+01  2.2686E-01   1.0205E+01  0.000E+00  0.000E+00  0.000E+00  1.05868E+03  6.790E-01  1.542E+01  6.166E-02  1.226E+00
   1    7    7     5     2    1.0205E+01  2.7894E-01   9.9265E+00  0.000E+00  0.000E+00  0.000E+00  1.05417E+03  6.732E-01  1.519E+01  7.594E-02  1.224E+00
   1    8    7     5     3    9.9265E+00  1.9221E-01   9.7343E+00  0.000E+00  0.000E+00  0.000E+00  1.04992E+03  6.676E-01  1.497E+01  5.241E-02  1.223E+00
   1    8    6     5     4    9.7343E+00  1.3577E-01   9.5985E+00  0.000E+00  0.000E+00  0.000E+00  1.04691E+03  6.637E-01  1.482E+01  3.706E-02  1.221E+00
   1    9    6     6     1    1.6194E+01  2.3621E-01   1.5958E+01  0.000E+00  0.000E+00  0.000E+00  1.04366E+03  9.369E-01  1.200E+01  6.000E-02  1.312E+00
   1   10    7     6     2    1.5958E+01  2.3572E-01   1.5722E+01  0.000E+00  0.000E+00  0.000E+00  1.03911E+03  9.286E-01  1.200E+01  6.000E-02  1.310E+00
   1   11    7     6     3    1.5722E+01  2.3522E-01   1.5487E+01  0.000E+00  0.000E+00  0.000E+00  1.03456E+03  9.203E-01  1.200E+01  6.000E-02  1.307E+00
   1   12    7     6     4    1.5487E+01  2.3472E-01   1.5252E+01  0.000E+00  0.000E+00  0.000E+00  1.03000E+03  9.119E-01  1.200E+01  6.000E-02  1.304E+00
   1   13    7     6     5    1.5252E+01 -9.2515E-03   1.5261E+01  0.000E+00  0.000E+00  0.000E+00  1.02682E+03  9.079E-01  1.200E+01  2.400E-01 -1.285E-02
   1   14    9     7     1    1.5000E+02  1.3671E+00   1.4863E+02  0.000E+00  0.000E+00  0.000E+00  1.03987E+03  2.288E+00  5.529E+01  5.593E-01  8.148E-01
   1   13    8     7     2    1.4863E+02  1.9168E+00   1.4672E+02  0.000E+00  0.000E+00  0.000E+00  1.03478E+03  2.279E+00  5.526E+01  6.148E-01  1.039E+00
   1   13    7     7     3    1.4672E+02  1.5822E+00   1.4513E+02  0.000E+00  0.000E+00  0.000E+00  1.02969E+03  2.270E+00  5.521E+01  5.584E-01  9.445E-01
   1   13    6     8     1    1.6040E+02  9.6499E-01   1.5943E+02  0.000E+00  0.000E+00  0.000E+00  1.02476E+03  2.885E+00  4.184E+01  4.263E-01  7.545E-01
   1   13    5     8     2    1.5943E+02  2.1382E-01   1.5922E+02  0.000E+00  0.000E+00  0.000E+00  1.01851E+03  2.881E+00  4.178E+01  4.257E-01  1.674E-01
   1   13    4     8     3    1.5922E+02 -2.3940E+00   1.6161E+02  0.000E+00  0.000E+00  0.000E+00  1.01226E+03  2.889E+00  4.189E+01  4.268E+00 -1.870E-01
   1   13    3     8     4    1.6161E+02 -3.6810E+00   1.6529E+02  0.000E+00  0.000E+00  0.000E+00  1.00603E+03  2.909E+00  4.218E+01  4.298E+00 -2.855E-01
   1   13    2     8     5    1.6529E+02 -2.6939E+00   1.6799E+02  0.000E+00  0.000E+00  0.000E+00  9.99805E+02  2.930E+00  4.249E+01  4.330E+00 -2.074E-01
   1   13    1     8     6    1.6799E+02 -2.0674E+00   1.7005E+02  0.000E+00  0.000E+00  0.000E+00  9.94821E+02  2.946E+00  4.271E+01  2.612E+00 -2.639E-01
   1    8    6     9     1    5.2284E-04  0.0000E+00   5.2284E-04  0.000E+00  0.000E+00  0.000E+00  1.07876E+03  6.114E-03  4.000E+00  0.000E+00  1.002E+00
   1    8    5     9     2    5.2284E-04  0.0000E+00   5.2284E-04  0.000E+00  0.000E+00  0.000E+00  1.07826E+03  6.114E-03  4.000E+00  0.000E+00  1.002E+00



 UBDSV3 SAVING "           GW ET" ON UNIT  61 AT TIME STEP  9, STRESS PERIOD   5
 UBDSV3 SAVING "    UZF RECHARGE" ON UNIT  61 AT TIME STEP  9, STRESS PERIOD   5
 UBDSV3 SAVING " SURFACE LEAKAGE" ON UNIT  61 AT TIME STEP  9, STRESS PERIOD   5
 UBDSV3 SAVING "       HORT+DUNN" ON UNIT  61 AT TIME STEP  9, STRESS PERIOD   5
 UBDSV3 SAVING "  STORAGE CHANGE" ON UNIT  61 AT TIME STEP  9, STRESS PERIOD   5


UNSATURATED ZONE PACKAGE VOLUMETRIC BUDGET FOR  TIME STEP     9 STRESS PERIOD    5
  ------------------------------------------------------------------------------



     CUMULATIVE VOLUMES      L**3       RATES FOR THIS TIME STEP      L**3/T
     ------------------                 ------------------------

           IN:                                      IN:
           ---                                      ---
        INFILTRATION =    51757451.0434          INFILTRATION =           0.8480

          OUT:                                     OUT:
          ----                                     ----
              UZF ET =    10209196.0611                UZF ET =           4.5675
        UZF RECHARGE =       73224.0000          UZF RECHARGE =       0.0000E+00

            IN - OUT =    41475030.9823              IN - OUT =          -3.7195

          STORAGE:                                 STORAGE:
          --------                                 --------
      STORAGE CHANGE =    41477559.0674        STORAGE CHANGE =          -3.7195

 PERCENT DISCREPANCY IS DIFFERENCE BETWEEN IN-OUT MINUS CHANGE IN STORAGE
 DIVIDED BY THE AVERAGE OF IN AND OUT TIMES 100

 PERCENT DISCREPANCY =          -0.00     PERCENT DISCREPANCY =          -0.00






 

            AG WELLS      PERIOD    5   STEP   9
 AG WELL      1   LAYER   1   ROW     6   COL     4   RATE   -1.844213E-08
 AG WELL      2   LAYER   1   ROW     6   COL     5   RATE   -1.844213E-08
 AG WELL      3   LAYER   1   ROW     7   COL     4   RATE   -1.844213E-08
 AG WELL      4   LAYER   1   ROW     7   COL     5   RATE   -1.844213E-08
 AG WELL      5   LAYER   1   ROW     8   COL     4   RATE   -1.844213E-08
 AG WELL      6   LAYER   1   ROW     8   COL     5   RATE   -1.844213E-08
 
 

   DIVERSION SEGMENTS     PERIOD    5   STEP   9
 SEGMENT      9   RATE    5.228404E-04
 
 

        SW IRRIGATION     PERIOD    5   STEP   9
 SEGMENT      9   ROW     6   COL     4   RATE    8.712336E-05
 SEGMENT      9   ROW     6   COL     5   RATE    8.712336E-05
 SEGMENT      9   ROW     7   COL     4   RATE    8.712336E-05
 SEGMENT      9   ROW     7   COL     5   RATE    8.712336E-05
 SEGMENT      9   ROW     8   COL     4   RATE    8.712336E-05
 SEGMENT      9   ROW     8   COL     5   RATE    8.712336E-05
 
 

        GW IRRIGATION     PERIOD    5   STEP   9
 AG WELL      1   ROW     6   COL     4   RATE    1.844213E-08
 AG WELL      2   ROW     6   COL     5   RATE    1.844213E-08
 AG WELL      3   ROW     7   COL     4   RATE    1.844213E-08
 AG WELL      4   ROW     7   COL     5   RATE    1.844213E-08
 AG WELL      5   ROW     8   COL     4   RATE    1.844213E-08
 AG WELL      6   ROW     8   COL     5   RATE    1.844213E-08
 
1
  VOLUMETRIC BUDGET FOR AGRICULTURAL FIELDS AT  END OF TIME STEP    9, STRESS PERIOD   5
  ------------------------------------------------------------------------------

     CUMULATIVE VOLUMES      L**3       RATES FOR THIS TIME STEP      L**3/T
     ------------------                 ------------------------

           IN:                                      IN:
           ---                                      ---
               AG WELLS  =    42593884.0000                 AG WELLS  =       1.1065E-07
      DIVERSION SEGMENTS =     1734903.6250        DIVERSION SEGMENTS =       5.2284E-04
           GW IRRIGATION =           0.0000             GW IRRIGATION =           0.0000
           SW IRRIGATION =           0.0000             SW IRRIGATION =           0.0000
        SYSTEM LOSSES GW =           0.0000          SYSTEM LOSSES GW =           0.0000
        SYSTEM LOSSES SW =           0.0000          SYSTEM LOSSES SW =           0.0000

                TOTAL IN =    44328788.0000                  TOTAL IN =       5.2295E-04

          OUT:                                     OUT:
          ----                                     ----
               AG WELLS  =           0.0000                 AG WELLS  =           0.0000
      DIVERSION SEGMENTS =           0.0000        DIVERSION SEGMENTS =           0.0000
           GW IRRIGATION =    42593884.0000             GW IRRIGATION =       1.1065E-07
           SW IRRIGATION =     1734938.2500             SW IRRIGATION =       5.2285E-04
        SYSTEM LOSSES GW =           0.0000          SYSTEM LOSSES GW =           0.0000
        SYSTEM LOSSES SW =           0.0000          SYSTEM LOSSES SW =           0.0000

               TOTAL OUT =    44328824.0000                 TOTAL OUT =       5.2296E-04

                IN - OUT =         -36.0000                  IN - OUT =      -1.0419E-08

     PERCENT DISCREPANCY =          -0.00         PERCENT DISCREPANCY =          -0.00



1
  VOLUMETRIC BUDGET FOR ENTIRE MODEL AT END OF TIME STEP    9, STRESS PERIOD   5
  ------------------------------------------------------------------------------

     CUMULATIVE VOLUMES      L**3       RATES FOR THIS TIME STEP      L**3/T
     ------------------                 ------------------------

           IN:                                      IN:
           ---                                      ---
             STORAGE     =    51917676.0000               STORAGE     =           7.2221
       CONSTANT HEAD     =           0.0000         CONSTANT HEAD     =           0.0000
     HEAD DEP BOUNDS     =     2522924.2500       HEAD DEP BOUNDS     =           0.2879
      STREAM LEAKAGE     =   102334880.0000        STREAM LEAKAGE     =          11.2923
        UZF RECHARGE     =       73223.9531          UZF RECHARGE     =           0.0000
               GW ET     =           0.0000                 GW ET     =           0.0000
     SURFACE LEAKAGE     =           0.0000       SURFACE LEAKAGE     =           0.0000
           AG WELLS      =           0.0000             AG WELLS      =           0.0000

                TOTAL IN =   156848704.0000                  TOTAL IN =          18.8023

          OUT:                                     OUT:
          ----                                     ----
             STORAGE     =    22611360.0000               STORAGE     =           7.6675
       CONSTANT HEAD     =           0.0000         CONSTANT HEAD     =           0.0000
     HEAD DEP BOUNDS     =     2526190.7500       HEAD DEP BOUNDS     =           0.2893
      STREAM LEAKAGE     =    89121040.0000        STREAM LEAKAGE     =          10.8454
        UZF RECHARGE     =           0.0000          UZF RECHARGE     =           0.0000
               GW ET     =           0.0000                 GW ET     =           0.0000
     SURFACE LEAKAGE     =           0.0000       SURFACE LEAKAGE     =           0.0000
           AG WELLS      =    42593884.0000             AG WELLS      =       1.1065E-07

               TOTAL OUT =   156852480.0000                 TOTAL OUT =          18.8023

                IN - OUT =       -3776.0000                  IN - OUT =       5.7220E-06

     PERCENT DISCREPANCY =          -0.00         PERCENT DISCREPANCY =           0.00






         TIME SUMMARY AT END OF TIME STEP    9 IN STRESS PERIOD    5
                    SECONDS     MINUTES      HOURS       DAYS        YEARS
                    -----------------------------------------------------------
   TIME STEP LENGTH  87667.      1461.1      24.352      1.0147     2.77799E-03
 STRESS PERIOD TIME 7.89000E+05  13150.      219.17      9.1319     2.50019E-02
         TOTAL TIME 8.76540E+06 1.46090E+05  2434.8      101.45     0.27776    
1
 
 SOLVING FOR HEAD 
                                                   Max.-Head-Change                         Max.-Flux-Residual
  Residual-Control   Outer-Iter.   Inner-Iter.     Column Row Layer    Maximum-Head-Change  Column Row Layer    Maximum-Flux-Residual          L2-NORM 
          0                 1           2             5    6     1       0.2834069313E-01       5    6    1         0.1545594127E+01      0.3527232414E+01
          0                 2           2             5    6     1      -0.2759390178E-02       5    6    1        -0.1547029585E+00      0.3529586396E+00
          0                 3           2             5    6     1       0.1904564122E-03       5    6    1         0.1097344441E-01      0.2499330620E-01
          0                 4           1             5    6     1      -0.1168837338E-04       5    6    1        -0.6875559106E-03      0.1539196645E-02

    ------------------------------------------------
       NWT REQUIRED            4 OUTER ITERATIONS 
       AND A TOTAL OF          7 INNER ITERATIONS.
    ------------------------------------------------

 OUTPUT CONTROL FOR STRESS PERIOD    5   TIME STEP   10
    PRINT BUDGET
    SAVE BUDGET
 UBDSV1 SAVING "         STORAGE" ON UNIT 102 AT TIME STEP 10, STRESS PERIOD   5
 UBDSV2 SAVING "   CONSTANT HEAD" ON UNIT 102 AT TIME STEP 10, STRESS PERIOD   5
 UBDSV1 SAVING "FLOW RIGHT FACE " ON UNIT 102 AT TIME STEP 10, STRESS PERIOD   5
 UBDSV1 SAVING "FLOW FRONT FACE " ON UNIT 102 AT TIME STEP 10, STRESS PERIOD   5

  HEAD DEP BOUNDS   PERIOD    5   STEP    10
 BOUNDARY      1   LAYER   1   ROW    13   COL     1   RATE   -0.289204    
 BOUNDARY      2   LAYER   1   ROW    14   COL     9   RATE    0.287890    



 STREAM LISTING     PERIOD      5   STEP       10

 LAYER ROW COL. STREAM  RCH.  FLOW INTO     FLOW TO   FLOW OUT OF   OVRLND.     DIRECT     STREAM       STREAM     STREAM     STREAM   STREAMBED  STREAMBED
                SEG.NO.  NO.  STRM. RCH.    AQUIFER    STRM. RCH.    RUNOFF     PRECIP       ET          HEAD       DEPTH      WIDTH   CONDCTNC.   GRADIENT

   1    1    1     1     1    1.0500E+01  1.5271E-01   1.0347E+01  0.000E+00  0.000E+00  0.000E+00  1.09396E+03  9.109E-01  8.677E+00  3.905E-02  1.304E+00
   1    2    2     1     2    1.0347E+01  2.3505E-01   1.0112E+01  0.000E+00  0.000E+00  0.000E+00  1.08896E+03  9.059E-01  8.597E+00  6.018E-02  1.302E+00
   1    3    3     1     3    1.0112E+01  1.9904E-01   9.9132E+00  0.000E+00  0.000E+00  0.000E+00  1.08332E+03  9.003E-01  8.505E+00  5.103E-02  1.300E+00
   1    3    4     1     4    9.9132E+00  1.8195E-01   9.7313E+00  0.000E+00  0.000E+00  0.000E+00  1.07830E+03  8.947E-01  8.417E+00  4.672E-02  1.298E+00
   1    4    5     2     1    7.7313E+00  2.8007E-01   7.4512E+00  0.000E+00  0.000E+00  0.000E+00  1.07252E+03  5.907E-01  1.200E+01  7.800E-02  1.197E+00
   1    5    6     2     2    7.4512E+00  2.1474E-01   7.2365E+00  0.000E+00  0.000E+00  0.000E+00  1.06709E+03  5.790E-01  1.200E+01  6.000E-02  1.193E+00
   1    6    6     2     3    7.2365E+00  2.1413E-01   7.0224E+00  0.000E+00  0.000E+00  0.000E+00  1.06236E+03  5.688E-01  1.200E+01  6.000E-02  1.190E+00
   1    7    6     2     4    7.0224E+00  2.1351E-01   6.8088E+00  0.000E+00  0.000E+00  0.000E+00  1.05763E+03  5.585E-01  1.200E+01  6.000E-02  1.186E+00
   1    8    6     2     5    6.8088E+00  2.1289E-01   6.5960E+00  0.000E+00  0.000E+00  0.000E+00  1.05291E+03  5.481E-01  1.200E+01  6.000E-02  1.183E+00
   1    3    5     3     1    2.0000E+00  2.8252E-01   1.7175E+00  0.000E+00  0.000E+00  0.000E+00  1.07555E+03  1.909E+00  9.636E+00  7.227E-02  1.955E+00
   1    3    6     3     2    1.7175E+00  2.4905E-01   1.4684E+00  0.000E+00  0.000E+00  0.000E+00  1.07264E+03  1.727E+00  8.909E+00  6.682E-02  1.864E+00
   1    3    7     3     3    1.4684E+00  1.9718E-01   1.2712E+00  0.000E+00  0.000E+00  0.000E+00  1.06987E+03  1.555E+00  8.218E+00  5.547E-02  1.777E+00
   1    4    8     3     4    1.2712E+00  2.2567E-01   1.0456E+00  0.000E+00  0.000E+00  0.000E+00  1.06682E+03  1.364E+00  7.455E+00  6.709E-02  1.682E+00
   1    5    8     3     5    1.0456E+00  1.5790E-01   8.8768E-01  0.000E+00  0.000E+00  0.000E+00  1.06362E+03  1.164E+00  6.655E+00  4.991E-02  1.582E+00
   1    6    8     3     6    8.8768E-01  5.5980E-02   8.3170E-01  0.000E+00  0.000E+00  0.000E+00  1.06158E+03  1.036E+00  6.145E+00  1.844E-02  1.518E+00
   1    5   10     4     1    1.0000E+01  9.0919E-02   9.9091E+00  0.000E+00  0.000E+00  0.000E+00  1.07836E+03  6.368E-01  1.000E+01  2.500E-02  1.212E+00
   1    5    9     4     2    9.9091E+00  1.8158E-01   9.7275E+00  0.000E+00  0.000E+00  0.000E+00  1.07154E+03  6.315E-01  1.000E+01  5.000E-02  1.211E+00
   1    6    8     4     3    9.7275E+00  1.2689E-01   9.6006E+00  0.000E+00  0.000E+00  0.000E+00  1.06381E+03  6.256E-01  1.000E+01  3.500E-02  1.209E+00
   1    6    8     5     1    1.0432E+01  2.2686E-01   1.0205E+01  0.000E+00  0.000E+00  0.000E+00  1.05868E+03  6.790E-01  1.542E+01  6.166E-02  1.226E+00
   1    7    7     5     2    1.0205E+01  2.7894E-01   9.9265E+00  0.000E+00  0.000E+00  0.000E+00  1.05417E+03  6.732E-01  1.519E+01  7.594E-02  1.224E+00
   1    8    7     5     3    9.9265E+00  1.9221E-01   9.7343E+00  0.000E+00  0.000E+00  0.000E+00  1.04992E+03  6.676E-01  1.497E+01  5.241E-02  1.223E+00
   1    8    6     5     4    9.7343E+00  1.3577E-01   9.5985E+00  0.000E+00  0.000E+00  0.000E+00  1.04691E+03  6.637E-01  1.482E+01  3.706E-02  1.221E+00
   1    9    6     6     1    1.6192E+01  2.3621E-01   1.5956E+01  0.000E+00  0.000E+00  0.000E+00  1.04366E+03  9.368E-01  1.200E+01  6.000E-02  1.312E+00
   1   10    7     6     2    1.5956E+01  2.3571E-01   1.5720E+01  0.000E+00  0.000E+00  0.000E+00  1.03911E+03  9.285E-01  1.200E+01  6.000E-02  1.310E+00
   1   11    7     6     3    1.5720E+01  2.3521E-01   1.5485E+01  0.000E+00  0.000E+00  0.000E+00  1.03456E+03  9.202E-01  1.200E+01  6.000E-02  1.307E+00
   1   12    7     6     4    1.5485E+01  2.3471E-01   1.5250E+01  0.000E+00  0.000E+00  0.000E+00  1.03000E+03  9.119E-01  1.200E+01  6.000E-02  1.304E+00
   1   13    7     6     5    1.5250E+01 -9.2848E-03   1.5260E+01  0.000E+00  0.000E+00  0.000E+00  1.02682E+03  9.079E-01  1.200E+01  2.400E-01 -1.290E-02
   1   14    9     7     1    1.5000E+02  1.3671E+00   1.4863E+02  0.000E+00  0.000E+00  0.000E+00  1.03987E+03  2.288E+00  5.529E+01  5.593E-01  8.148E-01
   1   13    8     7     2    1.4863E+02  1.9167E+00   1.4672E+02  0.000E+00  0.000E+00  0.000E+00  1.03478E+03  2.279E+00  5.526E+01  6.148E-01  1.039E+00
   1   13    7     7     3    1.4672E+02  1.5821E+00   1.4513E+02  0.000E+00  0.000E+00  0.000E+00  1.02969E+03  2.270E+00  5.521E+01  5.584E-01  9.444E-01
   1   13    6     8     1    1.6039E+02  9.6519E-01   1.5943E+02  0.000E+00  0.000E+00  0.000E+00  1.02476E+03  2.885E+00  4.184E+01  4.263E-01  7.547E-01
   1   13    5     8     2    1.5943E+02  2.1405E-01   1.5921E+02  0.000E+00  0.000E+00  0.000E+00  1.01851E+03  2.881E+00  4.178E+01  4.257E-01  1.676E-01
   1   13    4     8     3    1.5921E+02 -2.3852E+00   1.6160E+02  0.000E+00  0.000E+00  0.000E+00  1.01226E+03  2.889E+00  4.188E+01  4.268E+00 -1.863E-01
   1   13    3     8     4    1.6160E+02 -3.6721E+00   1.6527E+02  0.000E+00  0.000E+00  0.000E+00  1.00603E+03  2.909E+00  4.218E+01  4.298E+00 -2.848E-01
   1   13    2     8     5    1.6527E+02 -2.6839E+00   1.6796E+02  0.000E+00  0.000E+00  0.000E+00  9.99805E+02  2.930E+00  4.249E+01  4.329E+00 -2.066E-01
   1   13    1     8     6    1.6796E+02 -2.0631E+00   1.7002E+02  0.000E+00  0.000E+00  0.000E+00  9.94821E+02  2.946E+00  4.271E+01  2.611E+00 -2.633E-01
   1    8    6     9     1    2.2982E-03  0.0000E+00   2.2982E-03  0.000E+00  0.000E+00  0.000E+00  1.07876E+03  1.486E-02  4.000E+00  0.000E+00  1.005E+00
   1    8    5     9     2    2.2982E-03  0.0000E+00   2.2982E-03  0.000E+00  0.000E+00  0.000E+00  1.07826E+03  1.486E-02  4.000E+00  0.000E+00  1.005E+00



 UBDSV3 SAVING "           GW ET" ON UNIT  61 AT TIME STEP 10, STRESS PERIOD   5
 UBDSV3 SAVING "    UZF RECHARGE" ON UNIT  61 AT TIME STEP 10, STRESS PERIOD   5
 UBDSV3 SAVING " SURFACE LEAKAGE" ON UNIT  61 AT TIME STEP 10, STRESS PERIOD   5
 UBDSV3 SAVING "       HORT+DUNN" ON UNIT  61 AT TIME STEP 10, STRESS PERIOD   5
 UBDSV3 SAVING "  STORAGE CHANGE" ON UNIT  61 AT TIME STEP 10, STRESS PERIOD   5


UNSATURATED ZONE PACKAGE VOLUMETRIC BUDGET FOR  TIME STEP    10 STRESS PERIOD    5
  ------------------------------------------------------------------------------



     CUMULATIVE VOLUMES      L**3       RATES FOR THIS TIME STEP      L**3/T
     ------------------                 ------------------------

           IN:                                      IN:
           ---                                      ---
        INFILTRATION =    51831950.0205          INFILTRATION =           0.8498

          OUT:                                     OUT:
          ----                                     ----
              UZF ET =    10609613.5413                UZF ET =           4.5675
        UZF RECHARGE =       73224.0000          UZF RECHARGE =       0.0000E+00

            IN - OUT =    41149112.4792              IN - OUT =          -3.7177

          STORAGE:                                 STORAGE:
          --------                                 --------
      STORAGE CHANGE =    41151641.1677        STORAGE CHANGE =          -3.7177

 PERCENT DISCREPANCY IS DIFFERENCE BETWEEN IN-OUT MINUS CHANGE IN STORAGE
 DIVIDED BY THE AVERAGE OF IN AND OUT TIMES 100

 PERCENT DISCREPANCY =          -0.00     PERCENT DISCREPANCY =          -0.00






 

            AG WELLS      PERIOD    5   STEP  10
 AG WELL      1   LAYER   1   ROW     6   COL     4   RATE   -2.387599E-04
 AG WELL      2   LAYER   1   ROW     6   COL     5   RATE   -2.387599E-04
 AG WELL      3   LAYER   1   ROW     7   COL     4   RATE   -2.387599E-04
 AG WELL      4   LAYER   1   ROW     7   COL     5   RATE   -2.387599E-04
 AG WELL      5   LAYER   1   ROW     8   COL     4   RATE   -2.387599E-04
 AG WELL      6   LAYER   1   ROW     8   COL     5   RATE   -2.387599E-04
 
 

   DIVERSION SEGMENTS     PERIOD    5   STEP  10
 SEGMENT      9   RATE    2.298248E-03
 
 

        SW IRRIGATION     PERIOD    5   STEP  10
 SEGMENT      9   ROW     6   COL     4   RATE    1.442842E-04
 SEGMENT      9   ROW     6   COL     5   RATE    1.442842E-04
 SEGMENT      9   ROW     7   COL     4   RATE    1.442842E-04
 SEGMENT      9   ROW     7   COL     5   RATE    1.442842E-04
 SEGMENT      9   ROW     8   COL     4   RATE    1.442842E-04
 SEGMENT      9   ROW     8   COL     5   RATE    1.442842E-04
 
 

        GW IRRIGATION     PERIOD    5   STEP  10
 AG WELL      1   ROW     6   COL     4   RATE    2.387599E-04
 AG WELL      2   ROW     6   COL     5   RATE    2.387599E-04
 AG WELL      3   ROW     7   COL     4   RATE    2.387599E-04
 AG WELL      4   ROW     7   COL     5   RATE    2.387599E-04
 AG WELL      5   ROW     8   COL     4   RATE    2.387599E-04
 AG WELL      6   ROW     8   COL     5   RATE    2.387599E-04
 
1
  VOLUMETRIC BUDGET FOR AGRICULTURAL FIELDS AT  END OF TIME STEP   10, STRESS PERIOD   5
  ------------------------------------------------------------------------------

     CUMULATIVE VOLUMES      L**3       RATES FOR THIS TIME STEP      L**3/T
     ------------------                 ------------------------

           IN:                                      IN:
           ---                                      ---
               AG WELLS  =    42594008.0000                 AG WELLS  =       1.4326E-03
      DIVERSION SEGMENTS =     1735105.1250        DIVERSION SEGMENTS =       2.2982E-03
           GW IRRIGATION =           0.0000             GW IRRIGATION =           0.0000
           SW IRRIGATION =           0.0000             SW IRRIGATION =           0.0000
        SYSTEM LOSSES GW =           0.0000          SYSTEM LOSSES GW =           0.0000
        SYSTEM LOSSES SW =           0.0000          SYSTEM LOSSES SW =           0.0000

                TOTAL IN =    44329112.0000                  TOTAL IN =       3.7308E-03

          OUT:                                     OUT:
          ----                                     ----
               AG WELLS  =           0.0000                 AG WELLS  =           0.0000
      DIVERSION SEGMENTS =           0.0000        DIVERSION SEGMENTS =           0.0000
           GW IRRIGATION =    42594008.0000             GW IRRIGATION =       1.4326E-03
           SW IRRIGATION =     1735139.7500             SW IRRIGATION =       2.2983E-03
        SYSTEM LOSSES GW =           0.0000          SYSTEM LOSSES GW =           0.0000
        SYSTEM LOSSES SW =           0.0000          SYSTEM LOSSES SW =           0.0000

               TOTAL OUT =    44329148.0000                 TOTAL OUT =       3.7309E-03

                IN - OUT =         -36.0000                  IN - OUT =      -4.5635E-08

     PERCENT DISCREPANCY =          -0.00         PERCENT DISCREPANCY =          -0.00



1
  VOLUMETRIC BUDGET FOR ENTIRE MODEL AT END OF TIME STEP   10, STRESS PERIOD   5
  ------------------------------------------------------------------------------

     CUMULATIVE VOLUMES      L**3       RATES FOR THIS TIME STEP      L**3/T
     ------------------                 ------------------------

           IN:                                      IN:
           ---                                      ---
             STORAGE     =    52527064.0000               STORAGE     =           6.9512
       CONSTANT HEAD     =           0.0000         CONSTANT HEAD     =           0.0000
     HEAD DEP BOUNDS     =     2548162.5000       HEAD DEP BOUNDS     =           0.2879
      STREAM LEAKAGE     =   103324864.0000        STREAM LEAKAGE     =          11.2926
        UZF RECHARGE     =       73223.9531          UZF RECHARGE     =           0.0000
               GW ET     =           0.0000                 GW ET     =           0.0000
     SURFACE LEAKAGE     =           0.0000       SURFACE LEAKAGE     =           0.0000
           AG WELLS      =           0.0000             AG WELLS      =           0.0000

                TOTAL IN =   158473312.0000                  TOTAL IN =          18.5317

          OUT:                                     OUT:
          ----                                     ----
             STORAGE     =    23262504.0000               STORAGE     =           7.4275
       CONSTANT HEAD     =           0.0000         CONSTANT HEAD     =           0.0000
     HEAD DEP BOUNDS     =     2551544.2500       HEAD DEP BOUNDS     =           0.2892
      STREAM LEAKAGE     =    90069024.0000        STREAM LEAKAGE     =          10.8135
        UZF RECHARGE     =           0.0000          UZF RECHARGE     =           0.0000
               GW ET     =           0.0000                 GW ET     =           0.0000
     SURFACE LEAKAGE     =           0.0000       SURFACE LEAKAGE     =           0.0000
           AG WELLS      =    42594008.0000             AG WELLS      =       1.4326E-03

               TOTAL OUT =   158477088.0000                 TOTAL OUT =          18.5317

                IN - OUT =       -3776.0000                  IN - OUT =       2.6703E-05

     PERCENT DISCREPANCY =          -0.00         PERCENT DISCREPANCY =           0.00






         TIME SUMMARY AT END OF TIME STEP   10 IN STRESS PERIOD    5
                    SECONDS     MINUTES      HOURS       DAYS        YEARS
                    -----------------------------------------------------------
   TIME STEP LENGTH  87667.      1461.1      24.352      1.0147     2.77799E-03
 STRESS PERIOD TIME 8.76667E+05  14611.      243.52      10.147     2.77799E-02
         TOTAL TIME 8.85306E+06 1.47551E+05  2459.2      102.47     0.28054    
1
 
 SOLVING FOR HEAD 
                                                   Max.-Head-Change                         Max.-Flux-Residual
  Residual-Control   Outer-Iter.   Inner-Iter.     Column Row Layer    Maximum-Head-Change  Column Row Layer    Maximum-Flux-Residual          L2-NORM 
          0                 1           2             5    6     1       0.2702950050E-01       5    6    1         0.1472932760E+01      0.3383692119E+01
          0                 2           2             5    6     1      -0.1288631500E-01       5    6    1        -0.7111902473E+00      0.1675891515E+01
          0                 3           2             4    7     1       0.1101918309E-01       5    6    1         0.6136808831E+00      0.1497677413E+01
          0                 4           2             4    7     1      -0.1690069601E-01       5    6    1        -0.9587225858E+00      0.2351600959E+01
          0                 5           2             4    7     1       0.9394093252E-02       4    7    1         0.5475736566E+00      0.1341274217E+01
          0                 6           2             4    7     1      -0.1466408682E-01       4    7    1        -0.8784366959E+00      0.2151713592E+01
          0                 7           2             4    7     1      -0.6051337650E-03       5    8    1        -0.3626003392E-01      0.8881221781E-01
          0                 8           1             4    7     1      -0.2496556890E-04       5    8    1        -0.1496091744E-02      0.3664404809E-02

    ------------------------------------------------
       NWT REQUIRED            8 OUTER ITERATIONS 
       AND A TOTAL OF         15 INNER ITERATIONS.
    ------------------------------------------------

 NO OUTPUT CONTROL FOR STRESS PERIOD    5   TIME STEP   11
 
 SOLVING FOR HEAD 
                                                   Max.-Head-Change                         Max.-Flux-Residual
  Residual-Control   Outer-Iter.   Inner-Iter.     Column Row Layer    Maximum-Head-Change  Column Row Layer    Maximum-Flux-Residual          L2-NORM 
          0                 1           2             5    6     1       0.2645691579E-01       5    6    1         0.1440933103E+01      0.3325567776E+01
          0                 2           2             5    6     1      -0.3568081177E-01       5    6    1        -0.1964210526E+01      0.4745722951E+01
          0                 3           2             4    7     1       0.2231945659E-01       5    6    1         0.1236819958E+01      0.3024429754E+01
          0                 4           2             4    7     1      -0.3298148067E-01       5    6    1        -0.1870692346E+01      0.4582039194E+01
          0                 5           2             4    7     1       0.4066689520E-03       4    7    1         0.2370237960E-01      0.5806968104E-01
          0                 6           1             4    7     1       0.5980973566E-05       5    8    1         0.3492158178E-03      0.8563826638E-03

    ------------------------------------------------
       NWT REQUIRED            6 OUTER ITERATIONS 
       AND A TOTAL OF         11 INNER ITERATIONS.
    ------------------------------------------------

 NO OUTPUT CONTROL FOR STRESS PERIOD    5   TIME STEP   12
 
 SOLVING FOR HEAD 
                                                   Max.-Head-Change                         Max.-Flux-Residual
  Residual-Control   Outer-Iter.   Inner-Iter.     Column Row Layer    Maximum-Head-Change  Column Row Layer    Maximum-Flux-Residual          L2-NORM 
          0                 1           2             5    6     1       0.2656764415E-01       5    6    1         0.1446522522E+01      0.3347840313E+01
          0                 2           2             5    6     1      -0.3569159388E-01       5    6    1        -0.1964769457E+01      0.4749095564E+01
          0                 3           2             4    7     1       0.2232256255E-01       5    6    1         0.1236859085E+01      0.3024657660E+01
          0                 4           2             4    7     1      -0.3298163780E-01       5    6    1        -0.1870693935E+01      0.4582048416E+01
          0                 5           2             4    7     1       0.4066708890E-03       4    7    1         0.2370247007E-01      0.5806980087E-01
          0                 6           1             4    7     1       0.5981002802E-05       5    8    1         0.3492160706E-03      0.8563684494E-03

    ------------------------------------------------
       NWT REQUIRED            6 OUTER ITERATIONS 
       AND A TOTAL OF         11 INNER ITERATIONS.
    ------------------------------------------------

 NO OUTPUT CONTROL FOR STRESS PERIOD    5   TIME STEP   13
 
 SOLVING FOR HEAD 
                                                   Max.-Head-Change                         Max.-Flux-Residual
  Residual-Control   Outer-Iter.   Inner-Iter.     Column Row Layer    Maximum-Head-Change  Column Row Layer    Maximum-Flux-Residual          L2-NORM 
          0                 1           2             5    6     1       0.2668114926E-01       5    6    1         0.1452279464E+01      0.3370656945E+01
          0                 2           2             5    6     1      -0.3570264631E-01       5    6    1        -0.1965345141E+01      0.4752415781E+01
          0                 3           2             4    7     1       0.2232559465E-01       5    6    1         0.1236899384E+01      0.3024882393E+01
          0                 4           2             4    7     1      -0.3298179143E-01       5    6    1        -0.1870695573E+01      0.4582057514E+01
          0                 5           2             4    7     1       0.4066727832E-03       4    7    1         0.2370255836E-01      0.5806991880E-01
          0                 6           1             4    7     1       0.5981030134E-05       5    8    1         0.3492163282E-03      0.8563701587E-03

    ------------------------------------------------
       NWT REQUIRED            6 OUTER ITERATIONS 
       AND A TOTAL OF         11 INNER ITERATIONS.
    ------------------------------------------------

 NO OUTPUT CONTROL FOR STRESS PERIOD    5   TIME STEP   14
 
 SOLVING FOR HEAD 
                                                   Max.-Head-Change                         Max.-Flux-Residual
  Residual-Control   Outer-Iter.   Inner-Iter.     Column Row Layer    Maximum-Head-Change  Column Row Layer    Maximum-Flux-Residual          L2-NORM 
          0                 1           2             5    6     1       0.2679702358E-01       5    6    1         0.1458180359E+01      0.3393873435E+01
          0                 2           2             5    6     1      -0.2260296264E-01       5    6    1        -0.1245142808E+01      0.2995991786E+01
          0                 3           2             4    7     1       0.1008651611E-01       5    6    1         0.5614852840E+00      0.1370729483E+01
          0                 4           2             4    7     1      -0.4013524950E-03       5    6    1        -0.2296122547E-01      0.5607082544E-01
          0                 5           1             4    7     1       0.4948849388E-05       5    6    1         0.2907461646E-03      0.7128431765E-03

    ------------------------------------------------
       NWT REQUIRED            5 OUTER ITERATIONS 
       AND A TOTAL OF          9 INNER ITERATIONS.
    ------------------------------------------------

 NO OUTPUT CONTROL FOR STRESS PERIOD    5   TIME STEP   15
 
 SOLVING FOR HEAD 
                                                   Max.-Head-Change                         Max.-Flux-Residual
  Residual-Control   Outer-Iter.   Inner-Iter.     Column Row Layer    Maximum-Head-Change  Column Row Layer    Maximum-Flux-Residual          L2-NORM 
          0                 1           2             5    6     1       0.2593355105E-01       5    6    1         0.1410285285E+01      0.3302470312E+01
          0                 2           2             5    6     1      -0.2522618485E-02       5    6    1        -0.1410279210E+00      0.3302407388E+00
          0                 3           2             5    6     1       0.1717810537E-03       5    6    1         0.9871964488E-02      0.2311629526E-01
          0                 4           1             5    6     1      -0.6835315134E-05       5    6    1        -0.4037638880E-03      0.9454088463E-03

    ------------------------------------------------
       NWT REQUIRED            4 OUTER ITERATIONS 
       AND A TOTAL OF          7 INNER ITERATIONS.
    ------------------------------------------------

 NO OUTPUT CONTROL FOR STRESS PERIOD    5   TIME STEP   16
 
 SOLVING FOR HEAD 
                                                   Max.-Head-Change                         Max.-Flux-Residual
  Residual-Control   Outer-Iter.   Inner-Iter.     Column Row Layer    Maximum-Head-Change  Column Row Layer    Maximum-Flux-Residual          L2-NORM 
          0                 1           2             5    6     1       0.2480394935E-01       5    6    1         0.1347819714E+01      0.3179983816E+01
          0                 2           2             5    6     1      -0.2412740124E-02       5    6    1        -0.1347814334E+00      0.3179927102E+00
          0                 3           2             5    6     1       0.1642987373E-03       5    6    1         0.9434709685E-02      0.2225898465E-01
          0                 4           1             5    6     1      -0.6537586985E-05       5    6    1        -0.3858801422E-03      0.9103513637E-03

    ------------------------------------------------
       NWT REQUIRED            4 OUTER ITERATIONS 
       AND A TOTAL OF          7 INNER ITERATIONS.
    ------------------------------------------------

 NO OUTPUT CONTROL FOR STRESS PERIOD    5   TIME STEP   17
 
 SOLVING FOR HEAD 
                                                   Max.-Head-Change                         Max.-Flux-Residual
  Residual-Control   Outer-Iter.   Inner-Iter.     Column Row Layer    Maximum-Head-Change  Column Row Layer    Maximum-Flux-Residual          L2-NORM 
          0                 1           2             5    6     1       0.2374177224E-01       5    6    1         0.1289118829E+01      0.3064727895E+01
          0                 2           2             5    6     1      -0.2309419600E-02       5    6    1        -0.1289113731E+00      0.3064675833E+00
          0                 3           2             5    6     1       0.1572629857E-03       5    6    1         0.9023804839E-02      0.2145226949E-01
          0                 4           1             5    6     1      -0.6257628091E-05       5    6    1        -0.3690740991E-03      0.8773718750E-03

    ------------------------------------------------
       NWT REQUIRED            4 OUTER ITERATIONS 
       AND A TOTAL OF          7 INNER ITERATIONS.
    ------------------------------------------------

 NO OUTPUT CONTROL FOR STRESS PERIOD    5   TIME STEP   18
 
 SOLVING FOR HEAD 
                                                   Max.-Head-Change                         Max.-Flux-Residual
  Residual-Control   Outer-Iter.   Inner-Iter.     Column Row Layer    Maximum-Head-Change  Column Row Layer    Maximum-Flux-Residual          L2-NORM 
          0                 1           2             5    6     1       0.2274209610E-01       5    6    1         0.1233905602E+01      0.2956155341E+01
          0                 2           2             5    6     1      -0.2212178991E-02       5    6    1        -0.1233900928E+00      0.2956106003E+00
          0                 3           2             5    6     1       0.1506412553E-03       5    6    1         0.8637314669E-02      0.2069211005E-01
          0                 4           1             5    6     1      -0.5994143496E-05       5    6    1        -0.3532666390E-03      0.8462792603E-03

    ------------------------------------------------
       NWT REQUIRED            4 OUTER ITERATIONS 
       AND A TOTAL OF          7 INNER ITERATIONS.
    ------------------------------------------------

 NO OUTPUT CONTROL FOR STRESS PERIOD    5   TIME STEP   19
 
 SOLVING FOR HEAD 
                                                   Max.-Head-Change                         Max.-Flux-Residual
  Residual-Control   Outer-Iter.   Inner-Iter.     Column Row Layer    Maximum-Head-Change  Column Row Layer    Maximum-Flux-Residual          L2-NORM 
          0                 1           2             5    6     1       0.2180097753E-01       5    6    1         0.1181957731E+01      0.2853806415E+01
          0                 2           2             5    6     1      -0.2122218426E-02       5    6    1        -0.1182824292E+00      0.2855634366E+00
          0                 3           2             5    6     1       0.1445152685E-03       5    6    1         0.8279777685E-02      0.1998957861E-01
          0                 4           1             5    6     1      -0.5750384864E-05       5    6    1        -0.3386433434E-03      0.8173076990E-03

    ------------------------------------------------
       NWT REQUIRED            4 OUTER ITERATIONS 
       AND A TOTAL OF          7 INNER ITERATIONS.
    ------------------------------------------------

 NO OUTPUT CONTROL FOR STRESS PERIOD    5   TIME STEP   20
 
 SOLVING FOR HEAD 
                                                   Max.-Head-Change                         Max.-Flux-Residual
  Residual-Control   Outer-Iter.   Inner-Iter.     Column Row Layer    Maximum-Head-Change  Column Row Layer    Maximum-Flux-Residual          L2-NORM 
          0                 1           2             5    6     1       0.2091438335E-01       5    6    1         0.1133048669E+01      0.2757228368E+01
          0                 2           2             5    6     1      -0.2034393797E-02       5    6    1        -0.1133044920E+00      0.2757190360E+00
          0                 3           2             5    6     1       0.1385347315E-03       5    6    1         0.7931321578E-02      0.1929998942E-01
          0                 4           1             5    6     1      -0.5512414387E-05       5    6    1        -0.3243914962E-03      0.7893374299E-03

    ------------------------------------------------
       NWT REQUIRED            4 OUTER ITERATIONS 
       AND A TOTAL OF          7 INNER ITERATIONS.
    ------------------------------------------------

 NO OUTPUT CONTROL FOR STRESS PERIOD    5   TIME STEP   21
 
 SOLVING FOR HEAD 
                                                   Max.-Head-Change                         Max.-Flux-Residual
  Residual-Control   Outer-Iter.   Inner-Iter.     Column Row Layer    Maximum-Head-Change  Column Row Layer    Maximum-Flux-Residual          L2-NORM 
          0                 1           2             5    6     1       0.2007843673E-01       5    6    1         0.1086961346E+01      0.2666010847E+01
          0                 2           2             5    6     1      -0.1955702881E-02       5    6    1        -0.1088400179E+00      0.2669113668E+00
          0                 3           2             5    6     1       0.1357282456E-03       5    6    1         0.7763034013E-02      0.1899877562E-01
          0                 4           1             5    6     1      -0.9510701082E-05       5    6    1        -0.5562499814E-03      0.1326579624E-02

    ------------------------------------------------
       NWT REQUIRED            4 OUTER ITERATIONS 
       AND A TOTAL OF          7 INNER ITERATIONS.
    ------------------------------------------------

 NO OUTPUT CONTROL FOR STRESS PERIOD    5   TIME STEP   22
 
 SOLVING FOR HEAD 
                                                   Max.-Head-Change                         Max.-Flux-Residual
  Residual-Control   Outer-Iter.   Inner-Iter.     Column Row Layer    Maximum-Head-Change  Column Row Layer    Maximum-Flux-Residual          L2-NORM 
          0                 1           2             5    6     1       0.1929014243E-01       5    6    1         0.1043526559E+01      0.2579793937E+01
          0                 2           2             5    7     1      -0.1214469272E-01       5    6    1        -0.6682498147E+00      0.1621381946E+01
          0                 3           2             4    7     1       0.1103573983E-01       5    6    1         0.6106749745E+00      0.1494190258E+01
          0                 4           2             4    7     1      -0.2994012297E-01       5    6    1        -0.1698057449E+01      0.4161289407E+01
          0                 5           2             4    7     1       0.9554941398E-02       4    7    1         0.5569445739E+00      0.1364213807E+01
          0                 6           2             4    7     1      -0.1466190322E-01       4    7    1        -0.8782994435E+00      0.2151377182E+01
          0                 7           2             4    7     1      -0.6050436559E-03       5    8    1        -0.3625436763E-01      0.8879833049E-01
          0                 8           1             4    7     1      -0.2496185132E-04       5    8    1        -0.1495858038E-02      0.3663831913E-02

    ------------------------------------------------
       NWT REQUIRED            8 OUTER ITERATIONS 
       AND A TOTAL OF         15 INNER ITERATIONS.
    ------------------------------------------------

 NO OUTPUT CONTROL FOR STRESS PERIOD    5   TIME STEP   23
 
 SOLVING FOR HEAD 
                                                   Max.-Head-Change                         Max.-Flux-Residual
  Residual-Control   Outer-Iter.   Inner-Iter.     Column Row Layer    Maximum-Head-Change  Column Row Layer    Maximum-Flux-Residual          L2-NORM 
          0                 1           2             5    6     1       0.1958267697E-01       5    6    1         0.1059507632E+01      0.2612989933E+01
          0                 2           2             4    7     1      -0.3540016360E-01       5    6    1        -0.1926068255E+01      0.4700948284E+01
          0                 3           2             4    7     1       0.2233499627E-01       5    6    1         0.1234150010E+01      0.3021348322E+01
          0                 4           2             4    7     1      -0.3298231660E-01       5    6    1        -0.1870581853E+01      0.4581911974E+01
          0                 5           2             4    7     1       0.4066792535E-03       4    7    1         0.2370285715E-01      0.5806838732E-01
          0                 6           1             4    7     1       0.5981125684E-05       5    8    1         0.3491969758E-03      0.8563631091E-03

    ------------------------------------------------
       NWT REQUIRED            6 OUTER ITERATIONS 
       AND A TOTAL OF         11 INNER ITERATIONS.
    ------------------------------------------------

 NO OUTPUT CONTROL FOR STRESS PERIOD    5   TIME STEP   24
 
 SOLVING FOR HEAD 
                                                   Max.-Head-Change                         Max.-Flux-Residual
  Residual-Control   Outer-Iter.   Inner-Iter.     Column Row Layer    Maximum-Head-Change  Column Row Layer    Maximum-Flux-Residual          L2-NORM 
          0                 1           2             5    6     1       0.2012593680E-01       5    6    1         0.1089249759E+01      0.2674898123E+01
          0                 2           2             4    7     1      -0.3542424438E-01       5    6    1        -0.1929042450E+01      0.4706505901E+01
          0                 3           2             4    7     1       0.2233664806E-01       5    6    1         0.1234358203E+01      0.3021726098E+01
          0                 4           2             4    7     1      -0.3298240158E-01       5    6    1        -0.1870590440E+01      0.4581927447E+01
          0                 5           2             4    7     1       0.4066803016E-03       4    7    1         0.2370290366E-01      0.5806856311E-01
          0                 6           1             4    7     1       0.5981141142E-05       5    8    1         0.3491984683E-03      0.8563592442E-03

    ------------------------------------------------
       NWT REQUIRED            6 OUTER ITERATIONS 
       AND A TOTAL OF         11 INNER ITERATIONS.
    ------------------------------------------------

 NO OUTPUT CONTROL FOR STRESS PERIOD    5   TIME STEP   25
 
 SOLVING FOR HEAD 
                                                   Max.-Head-Change                         Max.-Flux-Residual
  Residual-Control   Outer-Iter.   Inner-Iter.     Column Row Layer    Maximum-Head-Change  Column Row Layer    Maximum-Flux-Residual          L2-NORM 
          0                 1           2             5    6     1       0.2064215221E-01       5    6    1         0.1117482646E+01      0.2734828658E+01
          0                 2           2             5    7     1      -0.2209865540E-01       5    6    1        -0.1211073309E+01      0.2951629811E+01
          0                 3           2             4    7     1       0.1009622451E-01       5    6    1         0.5591004213E+00      0.1367627748E+01
          0                 4           2             4    7     1      -0.4017388295E-03       5    6    1        -0.2286255789E-01      0.5593022549E-01
          0                 5           1             4    7     1       0.4953612931E-05       5    6    1         0.2894192471E-03      0.7092259200E-03

    ------------------------------------------------
       NWT REQUIRED            5 OUTER ITERATIONS 
       AND A TOTAL OF          9 INNER ITERATIONS.
    ------------------------------------------------

 NO OUTPUT CONTROL FOR STRESS PERIOD    5   TIME STEP   26
 
 SOLVING FOR HEAD 
                                                   Max.-Head-Change                         Max.-Flux-Residual
  Residual-Control   Outer-Iter.   Inner-Iter.     Column Row Layer    Maximum-Head-Change  Column Row Layer    Maximum-Flux-Residual          L2-NORM 
          0                 1           2             5    6     1       0.2015196648E-01       5    6    1         0.1090399588E+01      0.2683178140E+01
          0                 2           2             5    6     1      -0.1960231649E-02       5    6    1        -0.1090396034E+00      0.2683172863E+00
          0                 3           2             5    6     1       0.1334845588E-03       5    6    1         0.7632778902E-02      0.1878215588E-01
          0                 4           1             5    6     1      -0.5311463535E-05       5    6    1        -0.3121810710E-03      0.7681782875E-03

    ------------------------------------------------
       NWT REQUIRED            4 OUTER ITERATIONS 
       AND A TOTAL OF          7 INNER ITERATIONS.
    ------------------------------------------------

 NO OUTPUT CONTROL FOR STRESS PERIOD    5   TIME STEP   27
 
 SOLVING FOR HEAD 
                                                   Max.-Head-Change                         Max.-Flux-Residual
  Residual-Control   Outer-Iter.   Inner-Iter.     Column Row Layer    Maximum-Head-Change  Column Row Layer    Maximum-Flux-Residual          L2-NORM 
          0                 1           2             5    6     1       0.1937060295E-01       5    6    1         0.1047339692E+01      0.2598711529E+01
          0                 2           2             5    6     1      -0.1884227038E-02       5    6    1        -0.1047336609E+00      0.2598708052E+00
          0                 3           2             5    6     1       0.1283089223E-03       5    6    1         0.7331362518E-02      0.1819092370E-01
          0                 4           1             5    6     1      -0.5105520175E-05       5    6    1        -0.2998531240E-03      0.7440084600E-03

    ------------------------------------------------
       NWT REQUIRED            4 OUTER ITERATIONS 
       AND A TOTAL OF          7 INNER ITERATIONS.
    ------------------------------------------------

 NO OUTPUT CONTROL FOR STRESS PERIOD    5   TIME STEP   28
 
 SOLVING FOR HEAD 
                                                   Max.-Head-Change                         Max.-Flux-Residual
  Residual-Control   Outer-Iter.   Inner-Iter.     Column Row Layer    Maximum-Head-Change  Column Row Layer    Maximum-Flux-Residual          L2-NORM 
          0                 1           2             5    6     1       0.1863713860E-01       5    6    1         0.1006735888E+01      0.2527168741E+01
          0                 2           2             5    6     1      -0.1812881227E-02       5    6    1        -0.1006733037E+00      0.2551950933E+00
          0                 3           2             5    6     1       0.1234505312E-03       5    6    1         0.7047137001E-02      0.1785762943E-01
          0                 4           1             5    6     1      -0.4912200672E-05       5    6    1        -0.2882282799E-03      0.7298640598E-03

    ------------------------------------------------
       NWT REQUIRED            4 OUTER ITERATIONS 
       AND A TOTAL OF          7 INNER ITERATIONS.
    ------------------------------------------------

 NO OUTPUT CONTROL FOR STRESS PERIOD    5   TIME STEP   29
 
 SOLVING FOR HEAD 
                                                   Max.-Head-Change                         Max.-Flux-Residual
  Residual-Control   Outer-Iter.   Inner-Iter.     Column Row Layer    Maximum-Head-Change  Column Row Layer    Maximum-Flux-Residual          L2-NORM 
          0                 1           2             5    6     1       0.1795473395E-01       5    6    1         0.9686073547E+00      0.2659604422E+01
          0                 2           2             5    6     1      -0.1746502757E-02       5    6    1        -0.9686051214E-01      0.2648154894E+00
          0                 3           2             5    6     1       0.1189303947E-03       5    6    1         0.6780240871E-02      0.1843309604E-01
          0                 4           1             5    6     1      -0.4732341657E-05       5    6    1        -0.2773122374E-03      0.7476620608E-03

    ------------------------------------------------
       NWT REQUIRED            4 OUTER ITERATIONS 
       AND A TOTAL OF          7 INNER ITERATIONS.
    ------------------------------------------------

 NO OUTPUT CONTROL FOR STRESS PERIOD    5   TIME STEP   30



 STREAM LISTING     PERIOD      5   STEP       30

 LAYER ROW COL. STREAM  RCH.  FLOW INTO     FLOW TO   FLOW OUT OF   OVRLND.     DIRECT     STREAM       STREAM     STREAM     STREAM   STREAMBED  STREAMBED
                SEG.NO.  NO.  STRM. RCH.    AQUIFER    STRM. RCH.    RUNOFF     PRECIP       ET          HEAD       DEPTH      WIDTH   CONDCTNC.   GRADIENT

   1    1    1     1     1    3.7125E+01  2.9395E-01   3.6831E+01  0.000E+00  0.000E+00  0.000E+00  1.09436E+03  1.309E+00  1.516E+01  6.821E-02  1.436E+00
   1    2    2     1     2    3.6831E+01  4.5518E-01   3.6376E+01  0.000E+00  0.000E+00  0.000E+00  1.08936E+03  1.306E+00  1.510E+01  1.057E-01  1.435E+00
   1    3    3     1     3    3.6376E+01  3.8814E-01   3.5988E+01  0.000E+00  0.000E+00  0.000E+00  1.08372E+03  1.303E+00  1.503E+01  9.020E-02  1.434E+00
   1    3    4     1     4    3.5988E+01  3.5737E-01   3.5631E+01  0.000E+00  0.000E+00  0.000E+00  1.07871E+03  1.300E+00  1.497E+01  8.311E-02  1.433E+00
   1    4    5     2     1    3.3631E+01  3.4618E-01   3.3284E+01  0.000E+00  0.000E+00  0.000E+00  1.07337E+03  1.438E+00  1.200E+01  7.800E-02  1.479E+00
   1    5    6     2     2    3.3284E+01  2.6582E-01   3.3019E+01  0.000E+00  0.000E+00  0.000E+00  1.06794E+03  1.430E+00  1.200E+01  6.000E-02  1.477E+00
   1    6    6     2     3    3.3019E+01  2.6541E-01   3.2753E+01  0.000E+00  0.000E+00  0.000E+00  1.06322E+03  1.423E+00  1.200E+01  6.000E-02  1.474E+00
   1    7    6     2     4    3.2753E+01  2.6499E-01   3.2488E+01  0.000E+00  0.000E+00  0.000E+00  1.05849E+03  1.417E+00  1.200E+01  6.000E-02  1.472E+00
   1    8    6     2     5    3.2488E+01  2.6458E-01   3.2224E+01  0.000E+00  0.000E+00  0.000E+00  1.05377E+03  1.410E+00  1.200E+01  6.000E-02  1.470E+00
   1    3    5     3     1    2.0000E+00  2.8252E-01   1.7175E+00  0.000E+00  0.000E+00  0.000E+00  1.07555E+03  1.909E+00  9.636E+00  7.227E-02  1.955E+00
   1    3    6     3     2    1.7175E+00  2.4905E-01   1.4684E+00  0.000E+00  0.000E+00  0.000E+00  1.07264E+03  1.727E+00  8.909E+00  6.682E-02  1.864E+00
   1    3    7     3     3    1.4684E+00  1.9718E-01   1.2712E+00  0.000E+00  0.000E+00  0.000E+00  1.06987E+03  1.555E+00  8.218E+00  5.547E-02  1.777E+00
   1    4    8     3     4    1.2712E+00  2.2567E-01   1.0456E+00  0.000E+00  0.000E+00  0.000E+00  1.06682E+03  1.364E+00  7.455E+00  6.709E-02  1.682E+00
   1    5    8     3     5    1.0456E+00  1.5790E-01   8.8768E-01  0.000E+00  0.000E+00  0.000E+00  1.06362E+03  1.164E+00  6.655E+00  4.991E-02  1.582E+00
   1    6    8     3     6    8.8768E-01  5.5980E-02   8.3170E-01  0.000E+00  0.000E+00  0.000E+00  1.06158E+03  1.036E+00  6.145E+00  1.844E-02  1.518E+00
   1    5   10     4     1    1.0000E+01  9.0919E-02   9.9091E+00  0.000E+00  0.000E+00  0.000E+00  1.07836E+03  6.368E-01  1.000E+01  2.500E-02  1.212E+00
   1    5    9     4     2    9.9091E+00  1.8158E-01   9.7275E+00  0.000E+00  0.000E+00  0.000E+00  1.07154E+03  6.315E-01  1.000E+01  5.000E-02  1.211E+00
   1    6    8     4     3    9.7275E+00  1.2689E-01   9.6006E+00  0.000E+00  0.000E+00  0.000E+00  1.06381E+03  6.256E-01  1.000E+01  3.500E-02  1.209E+00
   1    6    8     5     1    1.0432E+01  2.2686E-01   1.0205E+01  0.000E+00  0.000E+00  0.000E+00  1.05868E+03  6.790E-01  1.542E+01  6.166E-02  1.226E+00
   1    7    7     5     2    1.0205E+01  2.7894E-01   9.9265E+00  0.000E+00  0.000E+00  0.000E+00  1.05417E+03  6.732E-01  1.519E+01  7.594E-02  1.224E+00
   1    8    7     5     3    9.9265E+00  1.9221E-01   9.7343E+00  0.000E+00  0.000E+00  0.000E+00  1.04992E+03  6.676E-01  1.497E+01  5.241E-02  1.223E+00
   1    8    6     5     4    9.7343E+00  1.3577E-01   9.5985E+00  0.000E+00  0.000E+00  0.000E+00  1.04691E+03  6.637E-01  1.482E+01  3.706E-02  1.221E+00
   1    9    6     6     1    4.1822E+01  2.7956E-01   4.1542E+01  0.000E+00  0.000E+00  0.000E+00  1.04439E+03  1.659E+00  1.200E+01  6.000E-02  1.553E+00
   1   10    7     6     2    4.1542E+01  2.7916E-01   4.1263E+01  0.000E+00  0.000E+00  0.000E+00  1.03983E+03  1.653E+00  1.200E+01  6.000E-02  1.551E+00
   1   11    7     6     3    4.1263E+01  2.7876E-01   4.0985E+01  0.000E+00  0.000E+00  0.000E+00  1.03528E+03  1.646E+00  1.200E+01  6.000E-02  1.549E+00
   1   12    7     6     4    4.0985E+01  2.7836E-01   4.0706E+01  0.000E+00  0.000E+00  0.000E+00  1.03073E+03  1.639E+00  1.200E+01  6.000E-02  1.546E+00
   1   13    7     6     5    4.0706E+01  1.6668E-02   4.0690E+01  0.000E+00  0.000E+00  0.000E+00  1.02754E+03  1.636E+00  1.200E+01  2.400E-02  2.315E-01
   1   14    9     7     1    1.5000E+02  1.3674E+00   1.4863E+02  0.000E+00  0.000E+00  0.000E+00  1.03987E+03  2.288E+00  5.529E+01  5.593E-01  8.150E-01
   1   13    8     7     2    1.4863E+02  1.9164E+00   1.4672E+02  0.000E+00  0.000E+00  0.000E+00  1.03478E+03  2.279E+00  5.526E+01  6.148E-01  1.039E+00
   1   13    7     7     3    1.4672E+02  1.5851E+00   1.4513E+02  0.000E+00  0.000E+00  0.000E+00  1.02969E+03  2.270E+00  5.521E+01  5.584E-01  9.462E-01
   1   13    6     8     1    1.8582E+02  1.0976E+00   1.8472E+02  0.000E+00  0.000E+00  0.000E+00  1.02492E+03  3.049E+00  4.421E+01  4.505E-01  8.121E-01
   1   13    5     8     2    1.8472E+02  3.0478E-01   1.8442E+02  0.000E+00  0.000E+00  0.000E+00  1.01867E+03  3.045E+00  4.415E+01  4.499E-01  2.258E-01
   1   13    4     8     3    1.8442E+02 -1.7242E+00   1.8614E+02  0.000E+00  0.000E+00  0.000E+00  1.01242E+03  3.049E+00  4.421E+01  4.505E+00 -1.276E-01
   1   13    3     8     4    1.8614E+02 -3.0826E+00   1.8923E+02  0.000E+00  0.000E+00  0.000E+00  1.00619E+03  3.064E+00  4.443E+01  4.527E+00 -2.270E-01
   1   13    2     8     5    1.8923E+02 -2.0365E+00   1.9126E+02  0.000E+00  0.000E+00  0.000E+00  9.99954E+02  3.079E+00  4.465E+01  4.550E+00 -1.492E-01
   1   13    1     8     6    1.9126E+02 -1.7002E+00   1.9296E+02  0.000E+00  0.000E+00  0.000E+00  9.94966E+02  3.091E+00  4.482E+01  2.740E+00 -2.068E-01
   1    8    6     9     1    0.0000E+00  0.0000E+00   0.0000E+00  0.000E+00  0.000E+00  0.000E+00  1.07875E+03  0.000E+00  4.000E+00  0.000E+00  1.000E+00
   1    8    5     9     2    0.0000E+00  0.0000E+00   0.0000E+00  0.000E+00  0.000E+00  0.000E+00  1.07825E+03  0.000E+00  4.000E+00  0.000E+00  1.000E+00





UNSATURATED ZONE PACKAGE VOLUMETRIC BUDGET FOR  TIME STEP    30 STRESS PERIOD    5
  ------------------------------------------------------------------------------



     CUMULATIVE VOLUMES      L**3       RATES FOR THIS TIME STEP      L**3/T
     ------------------                 ------------------------

           IN:                                      IN:
           ---                                      ---
        INFILTRATION =    67603137.7421          INFILTRATION =           0.8475

          OUT:                                     OUT:
          ----                                     ----
              UZF ET =    18622956.3652                UZF ET =           4.5676
        UZF RECHARGE =       73224.0000          UZF RECHARGE =       0.0000E+00

            IN - OUT =    48906957.3770              IN - OUT =          -3.7201

          STORAGE:                                 STORAGE:
          --------                                 --------
      STORAGE CHANGE =    48910874.2097        STORAGE CHANGE =          -3.7201

 PERCENT DISCREPANCY IS DIFFERENCE BETWEEN IN-OUT MINUS CHANGE IN STORAGE
 DIVIDED BY THE AVERAGE OF IN AND OUT TIMES 100

 PERCENT DISCREPANCY =          -0.00     PERCENT DISCREPANCY =          -0.00






1
  VOLUMETRIC BUDGET FOR AGRICULTURAL FIELDS AT  END OF TIME STEP   30, STRESS PERIOD   5
  ------------------------------------------------------------------------------

     CUMULATIVE VOLUMES      L**3       RATES FOR THIS TIME STEP      L**3/T
     ------------------                 ------------------------

           IN:                                      IN:
           ---                                      ---
               AG WELLS  =    51674732.0000                 AG WELLS  =           0.0000
      DIVERSION SEGMENTS =     6939695.5000        DIVERSION SEGMENTS =           0.0000
           GW IRRIGATION =           0.0000             GW IRRIGATION =           0.0000
           SW IRRIGATION =           0.0000             SW IRRIGATION =           0.0000
        SYSTEM LOSSES GW =           0.0000          SYSTEM LOSSES GW =           0.0000
        SYSTEM LOSSES SW =           0.0000          SYSTEM LOSSES SW =           0.0000

                TOTAL IN =    58614428.0000                  TOTAL IN =           0.0000

          OUT:                                     OUT:
          ----                                     ----
               AG WELLS  =           0.0000                 AG WELLS  =           0.0000
      DIVERSION SEGMENTS =           0.0000        DIVERSION SEGMENTS =           0.0000
           GW IRRIGATION =    51674732.0000             GW IRRIGATION =           0.0000
           SW IRRIGATION =     6939834.5000             SW IRRIGATION =           0.0000
        SYSTEM LOSSES GW =           0.0000          SYSTEM LOSSES GW =           0.0000
        SYSTEM LOSSES SW =           0.0000          SYSTEM LOSSES SW =           0.0000

               TOTAL OUT =    58614568.0000                 TOTAL OUT =           0.0000

                IN - OUT =        -140.0000                  IN - OUT =           0.0000

     PERCENT DISCREPANCY =          -0.00         PERCENT DISCREPANCY =           0.00



1
  VOLUMETRIC BUDGET FOR ENTIRE MODEL AT END OF TIME STEP   30, STRESS PERIOD   5
  ------------------------------------------------------------------------------

     CUMULATIVE VOLUMES      L**3       RATES FOR THIS TIME STEP      L**3/T
     ------------------                 ------------------------

           IN:                                      IN:
           ---                                      ---
             STORAGE     =    67604088.0000               STORAGE     =           4.3424
       CONSTANT HEAD     =           0.0000         CONSTANT HEAD     =           0.0000
     HEAD DEP BOUNDS     =     3052947.5000       HEAD DEP BOUNDS     =           0.2879
      STREAM LEAKAGE     =   123203976.0000        STREAM LEAKAGE     =          12.7069
        UZF RECHARGE     =       73223.9531          UZF RECHARGE     =           0.0000
               GW ET     =           0.0000                 GW ET     =           0.0000
     SURFACE LEAKAGE     =           0.0000       SURFACE LEAKAGE     =           0.0000
           AG WELLS      =           0.0000             AG WELLS      =           0.0000

                TOTAL IN =   193934224.0000                  TOTAL IN =          17.3372

          OUT:                                     OUT:
          ----                                     ----
             STORAGE     =    30494650.0000               STORAGE     =           8.5055
       CONSTANT HEAD     =           0.0000         CONSTANT HEAD     =           0.0000
     HEAD DEP BOUNDS     =     3057339.7500       HEAD DEP BOUNDS     =           0.2883
      STREAM LEAKAGE     =   108711320.0000        STREAM LEAKAGE     =           8.5434
        UZF RECHARGE     =           0.0000          UZF RECHARGE     =           0.0000
               GW ET     =           0.0000                 GW ET     =           0.0000
     SURFACE LEAKAGE     =           0.0000       SURFACE LEAKAGE     =           0.0000
           AG WELLS      =    51674732.0000             AG WELLS      =           0.0000

               TOTAL OUT =   193938048.0000                 TOTAL OUT =          17.3372

                IN - OUT =       -3824.0000                  IN - OUT =       1.9073E-05

     PERCENT DISCREPANCY =          -0.00         PERCENT DISCREPANCY =           0.00






         TIME SUMMARY AT END OF TIME STEP   30 IN STRESS PERIOD    5
                    SECONDS     MINUTES      HOURS       DAYS        YEARS
                    -----------------------------------------------------------
   TIME STEP LENGTH  87667.      1461.1      24.352      1.0147     2.77799E-03
 STRESS PERIOD TIME 2.63000E+06  43833.      730.56      30.440     8.33397E-02
         TOTAL TIME 1.06064E+07 1.76773E+05  2946.2      122.76     0.33610    
1
1
                            STRESS PERIOD NO.    6, LENGTH =   2630000.    
                            -----------------------------------------------

                              NUMBER OF TIME STEPS =    30

                               MULTIPLIER FOR DELT =     1.000

                            INITIAL TIME STEP SIZE =   87666.66    

 REUSING NON-PARAMETER GHB CELLS FROM LAST STRESS PERIOD

      2 GHB CELLS

 REUSING STREAM SEGMENT DATA FROM LAST STRESS PERIOD



            AREAL INFILTRATION RATE
 READING ON UNIT   19 WITH FORMAT: (FREE)              

            1           2           3           4           5           6           7           8           9          10
 ........................................................................................................................
   1   1.0000E-10  2.0000E-10   0.000       0.000       0.000       0.000       0.000       0.000       0.000       0.000    
   2   2.0000E-10  1.0000E-10  2.0000E-10   0.000       0.000      8.0000E-10  8.0000E-10  5.0000E-10   0.000       0.000    
   3    0.000      5.0000E-10  1.0000E-10  1.0000E-10  8.0000E-10  8.0000E-10  5.0000E-10  5.0000E-10   0.000       0.000    
   4   8.0000E-10  5.0000E-10  1.0000E-10  1.0000E-10  1.0000E-10  1.0000E-10  1.0000E-10  1.0000E-10  2.0000E-10   0.000    
   5   8.0000E-10  5.0000E-10  1.0000E-10  1.0000E-10  1.0000E-10  1.0000E-10  1.0000E-10  1.0000E-10  1.0000E-10  1.0000E-10
   6   8.0000E-10  5.0000E-10  5.0000E-10  2.0000E-10  2.0000E-10  1.0000E-10  1.0000E-10  1.0000E-10  1.0000E-10  5.0000E-10
   7   8.0000E-10  5.0000E-10  5.0000E-10  2.0000E-10  2.0000E-10  1.0000E-10  1.0000E-10  2.0000E-10  2.0000E-10   0.000    
   8    0.000      5.0000E-10  5.0000E-10  2.0000E-10  2.0000E-10  1.0000E-10  1.0000E-10  2.0000E-10  5.0000E-10   0.000    
   9    0.000      5.0000E-10  5.0000E-10  2.0000E-10  2.0000E-10  1.0000E-10  1.0000E-10  2.0000E-10  5.0000E-10   0.000    
  10    0.000      5.0000E-10  5.0000E-10  2.0000E-10  2.0000E-10  1.0000E-10  1.0000E-10  2.0000E-10  5.0000E-10  8.0000E-10
  11    0.000      1.0000E-10  1.0000E-10  1.0000E-10  1.0000E-10  1.0000E-10  1.0000E-10  2.0000E-10  5.0000E-10   0.000    
  12   1.0000E-10  1.0000E-10  1.0000E-10  1.0000E-10  1.0000E-10  1.0000E-10  1.0000E-10  1.0000E-10  2.0000E-10   0.000    
  13   1.0000E-10  1.0000E-10  2.0000E-10  2.0000E-10  2.0000E-10  2.0000E-10  2.0000E-10  1.0000E-10  1.0000E-10   0.000    
  14    0.000      2.0000E-10  5.0000E-10  5.0000E-10  5.0000E-10  5.0000E-10  5.0000E-10  2.0000E-10  1.0000E-10   0.000    
  15    0.000       0.000      8.0000E-10  8.0000E-10  8.0000E-10  8.0000E-10   0.000       0.000       0.000       0.000    

                  ET RATE =  5.000000E-08

 USING ET EXTINCTION DEPTH FROM PREVIOUS STRESS PERIOD. CURRENT PERIOD IS:       6

 USING EXTINCTION WATER CONTENT FROM PREVIOUS STRESS PERIOD. CURRENT PERIOD IS:       6

 USING AIR ENTRY PRESSURE FROM PREVIOUS STRESS PERIOD. CURRENT PERIOD IS:       6

 USING ROOT PRESSURE HEAD FROM PREVIOUS STRESS PERIOD. CURRENT PERIOD IS:       6

 USING ROOT ACTIVITY FROM PREVIOUS STRESS PERIOD. CURRENT PERIOD IS:       6

 PROCESSING AG STRESS PERIOD DATA

 READING AG STRESS PERIOD DATA

 READING IRRIGATION SEGMENT

 READING IRRIGATION WELL

 READING SUPPLEMENTAL WELL

 END PROCESSING AG STRESS PERIOD DATA OPTIONS
 
 SOLVING FOR HEAD 
                                                   Max.-Head-Change                         Max.-Flux-Residual
  Residual-Control   Outer-Iter.   Inner-Iter.     Column Row Layer    Maximum-Head-Change  Column Row Layer    Maximum-Flux-Residual          L2-NORM 
          0                 1           2             5    6     1       0.1731030501E-01       5    6    1         0.9331509473E+00      0.2469804178E+01
          0                 2           2             5    6     1      -0.1685131724E-02       5    6    1        -0.9338713200E-01      0.2466713745E+00
          0                 3           2             5    6     1       0.1159058033E-03       5    6    1         0.6602351220E-02      0.1736511738E-01
          0                 4           1             5    6     1      -0.4549055984E-05       5    6    1        -0.2663807729E-03      0.6996879901E-03

    ------------------------------------------------
       NWT REQUIRED            4 OUTER ITERATIONS 
       AND A TOTAL OF          7 INNER ITERATIONS.
    ------------------------------------------------

 NO OUTPUT CONTROL FOR STRESS PERIOD    6   TIME STEP    1
 
 SOLVING FOR HEAD 
                                                   Max.-Head-Change                         Max.-Flux-Residual
  Residual-Control   Outer-Iter.   Inner-Iter.     Column Row Layer    Maximum-Head-Change  Column Row Layer    Maximum-Flux-Residual          L2-NORM 
          0                 1           2             5    7     1       0.1672865334E-01       5    6    1         0.8996554350E+00      0.2484629367E+01
          0                 2           2             5    7     1      -0.1627241514E-02       5    6    1        -0.8996539477E-01      0.2475347584E+00
          0                 3           2             5    7     1       0.1108091240E-03       5    6    1         0.6297582105E-02      0.1724303510E-01
          0                 4           1             5    7     1      -0.4409200242E-05       5    6    1        -0.2575714709E-03      0.7001649077E-03

    ------------------------------------------------
       NWT REQUIRED            4 OUTER ITERATIONS 
       AND A TOTAL OF          7 INNER ITERATIONS.
    ------------------------------------------------

 NO OUTPUT CONTROL FOR STRESS PERIOD    6   TIME STEP    2
 
 SOLVING FOR HEAD 
                                                   Max.-Head-Change                         Max.-Flux-Residual
  Residual-Control   Outer-Iter.   Inner-Iter.     Column Row Layer    Maximum-Head-Change  Column Row Layer    Maximum-Flux-Residual          L2-NORM 
          0                 1           2             5    7     1       0.1638864534E-01       5    7    1         0.8694193318E+00      0.2401516311E+01
          0                 2           2             5    7     1      -0.1594167683E-02       5    7    1        -0.8694188460E-01      0.2393373384E+00
          0                 3           2             5    7     1       0.1085569150E-03       5    7    1         0.6085935001E-02      0.1668011616E-01
          0                 4           1             5    7     1      -0.4319582961E-05       5    7    1        -0.2489150834E-03      0.6776594689E-03

    ------------------------------------------------
       NWT REQUIRED            4 OUTER ITERATIONS 
       AND A TOTAL OF          7 INNER ITERATIONS.
    ------------------------------------------------

 NO OUTPUT CONTROL FOR STRESS PERIOD    6   TIME STEP    3
 
 SOLVING FOR HEAD 
                                                   Max.-Head-Change                         Max.-Flux-Residual
  Residual-Control   Outer-Iter.   Inner-Iter.     Column Row Layer    Maximum-Head-Change  Column Row Layer    Maximum-Flux-Residual          L2-NORM 
          0                 1           2             5    7     1       0.1605576185E-01       5    7    1         0.8517490275E+00      0.2324161093E+01
          0                 2           2             4    7     1      -0.2466687043E-01       5    7    1        -0.1328426796E+01      0.3269437142E+01
          0                 3           2             4    7     1       0.2421269246E-01       5    7    1         0.1336241559E+01      0.3272723184E+01
          0                 4           2             4    7     1      -0.3725886654E-01       5    7    1        -0.2113057002E+01      0.5198939463E+01
          0                 5           2             4    7     1       0.3577350719E-01       4    7    1         0.2085188198E+01      0.5107615516E+01
          0                 6           2             4    7     1      -0.5638043294E-01       4    7    1        -0.3377378189E+01      0.8286795249E+01
          0                 7           2             4    7     1       0.3134553644E-01       4    7    1         0.1929548665E+01      0.4726823380E+01
          0                 8           2             4    7     1      -0.5211115542E-01       4    7    1        -0.3296115126E+01      0.8073777867E+01
          0                 9           2             4    7     1      -0.4795184219E-02       5    8    1        -0.3033393912E+00      0.7429897169E+00
          0                10           2             4    7     1      -0.4411954784E-03       5    8    1        -0.2791183988E-01      0.6836505396E-01
          0                11           1             4    7     1      -0.4058910361E-04       5    8    1        -0.2567969612E-02      0.6289738085E-02

    ------------------------------------------------
       NWT REQUIRED           11 OUTER ITERATIONS 
       AND A TOTAL OF         21 INNER ITERATIONS.
    ------------------------------------------------

 NO OUTPUT CONTROL FOR STRESS PERIOD    6   TIME STEP    4
 
 SOLVING FOR HEAD 
                                                   Max.-Head-Change                         Max.-Flux-Residual
  Residual-Control   Outer-Iter.   Inner-Iter.     Column Row Layer    Maximum-Head-Change  Column Row Layer    Maximum-Flux-Residual          L2-NORM 
          0                 1           2             5    6     1       0.1750288242E-01       5    6    1         0.9437520996E+00      0.2526087400E+01
          0                 2           2             4    7     1      -0.1672051243E+00       5    6    1        -0.8986284615E+01      0.2204093362E+02
          0                 3           2             4    7     1       0.1087238643E+00       5    6    1         0.5999527361E+01      0.1469532825E+02
          0                 4           2             4    7     1      -0.1611151379E+00       4    8    1        -0.9137261121E+01      0.2238158122E+02
          0                 5           2             4    7     1       0.1986452160E-02       4    7    1         0.1157780343E+00      0.2836068521E+00
          0                 6           1             4    7     1       0.2921518761E-04       5    6    1         0.1705640894E-02      0.4182523323E-02

    ------------------------------------------------
       NWT REQUIRED            6 OUTER ITERATIONS 
       AND A TOTAL OF         11 INNER ITERATIONS.
    ------------------------------------------------

 NO OUTPUT CONTROL FOR STRESS PERIOD    6   TIME STEP    5
 
 SOLVING FOR HEAD 
                                                   Max.-Head-Change                         Max.-Flux-Residual
  Residual-Control   Outer-Iter.   Inner-Iter.     Column Row Layer    Maximum-Head-Change  Column Row Layer    Maximum-Flux-Residual          L2-NORM 
          0                 1           2             5    6     1       0.2323994242E-01       5    6    1         0.1258912668E+01      0.3131183663E+01
          0                 2           2             4    7     1      -0.1673201896E+00       5    6    1        -0.9017800500E+01      0.2209249591E+02
          0                 3           2             4    7     1       0.1087318727E+00       5    8    1         0.6003564147E+01      0.1469972934E+02
          0                 4           2             4    7     1      -0.1611157516E+00       5    6    1        -0.9137311349E+01      0.2237999457E+02
          0                 5           2             5    8     1       0.2014309198E-02       5    8    1         0.1205553815E+00      0.2856299283E+00
          0                 6           1             5    8     1       0.2962488155E-04       5    8    1         0.1775780481E-02      0.4210993176E-02

    ------------------------------------------------
       NWT REQUIRED            6 OUTER ITERATIONS 
       AND A TOTAL OF         11 INNER ITERATIONS.
    ------------------------------------------------

 NO OUTPUT CONTROL FOR STRESS PERIOD    6   TIME STEP    6
 
 SOLVING FOR HEAD 
                                                   Max.-Head-Change                         Max.-Flux-Residual
  Residual-Control   Outer-Iter.   Inner-Iter.     Column Row Layer    Maximum-Head-Change  Column Row Layer    Maximum-Flux-Residual          L2-NORM 
          0                 1           2             5    6     1       0.2867202440E-01       5    6    1         0.1557081494E+01      0.3742568193E+01
          0                 2           2             4    7     1      -0.1674434871E+00       5    6    1        -0.9047617154E+01      0.2214250238E+02
          0                 3           2             4    7     1       0.1087404803E+00       5    6    1         0.6003845392E+01      0.1470245661E+02
          0                 4           2             4    7     1      -0.1611163993E+00       5    6    1        -0.9137398340E+01      0.2238185582E+02
          0                 5           2             4    7     1       0.1986479082E-02       4    7    1         0.1157784729E+00      0.2836485772E+00
          0                 6           1             4    7     1       0.2921558583E-04       5    8    1         0.1706030456E-02      0.4183341213E-02

    ------------------------------------------------
       NWT REQUIRED            6 OUTER ITERATIONS 
       AND A TOTAL OF         11 INNER ITERATIONS.
    ------------------------------------------------

 NO OUTPUT CONTROL FOR STRESS PERIOD    6   TIME STEP    7
 
 SOLVING FOR HEAD 
                                                   Max.-Head-Change                         Max.-Flux-Residual
  Residual-Control   Outer-Iter.   Inner-Iter.     Column Row Layer    Maximum-Head-Change  Column Row Layer    Maximum-Flux-Residual          L2-NORM 
          0                 1           2             5    8     1       0.3398073999E-01       5    8    1         0.1854871588E+01      0.4345443869E+01
          0                 2           2             4    7     1      -0.1675743813E+00       5    8    1        -0.9077395738E+01      0.2219105371E+02
          0                 3           2             4    7     1       0.1087496222E+00       5    8    1         0.6005933004E+01      0.1470584044E+02
          0                 4           2             4    7     1      -0.1611171264E+00       5    6    1        -0.9137480682E+01      0.2238199568E+02
          0                 5           2             4    7     1       0.1986488054E-02       4    7    1         0.1157787172E+00      0.2836500208E+00
          0                 6           1             4    7     1       0.2921571734E-04       5    8    1         0.1706045512E-02      0.4183357345E-02

    ------------------------------------------------
       NWT REQUIRED            6 OUTER ITERATIONS 
       AND A TOTAL OF         11 INNER ITERATIONS.
    ------------------------------------------------

 NO OUTPUT CONTROL FOR STRESS PERIOD    6   TIME STEP    8
 
 SOLVING FOR HEAD 
                                                   Max.-Head-Change                         Max.-Flux-Residual
  Residual-Control   Outer-Iter.   Inner-Iter.     Column Row Layer    Maximum-Head-Change  Column Row Layer    Maximum-Flux-Residual          L2-NORM 
          0                 1           2             5    8     1       0.3908564870E-01       5    8    1         0.2135822307E+01      0.4930080275E+01
          0                 2           2             4    7     1      -0.1677121231E+00       5    8    1        -0.9105490440E+01      0.2223797937E+02
          0                 3           2             4    7     1       0.1087592472E+00       5    8    1         0.6007911276E+01      0.1470910711E+02
          0                 4           2             4    7     1      -0.1611179001E+00       5    6    1        -0.9137558691E+01      0.2238213064E+02
          0                 5           2             4    7     1       0.1986497601E-02       4    7    1         0.1157789715E+00      0.2836514208E+00
          0                 6           1             4    7     1       0.2921585769E-04       5    8    1         0.1706059730E-02      0.4183373088E-02

    ------------------------------------------------
       NWT REQUIRED            6 OUTER ITERATIONS 
       AND A TOTAL OF         11 INNER ITERATIONS.
    ------------------------------------------------

 NO OUTPUT CONTROL FOR STRESS PERIOD    6   TIME STEP    9
 
 SOLVING FOR HEAD 
                                                   Max.-Head-Change                         Max.-Flux-Residual
  Residual-Control   Outer-Iter.   Inner-Iter.     Column Row Layer    Maximum-Head-Change  Column Row Layer    Maximum-Flux-Residual          L2-NORM 
          0                 1           2             5    8     1       0.4391009301E-01       5    8    1         0.2401093638E+01      0.5493879969E+01
          0                 2           2             4    7     1      -0.1678560457E+00       5    8    1        -0.9132017167E+01      0.2228334537E+02
          0                 3           2             4    7     1       0.1087693086E+00       5    8    1         0.6009778972E+01      0.1471226215E+02
          0                 4           2             4    7     1      -0.1611187166E+00       5    8    1        -0.9137634822E+01      0.2238226091E+02
          0                 5           2             4    7     1       0.1986507672E-02       4    7    1         0.1157792402E+00      0.2836527796E+00
          0                 6           1             4    7     1       0.2921600623E-04       5    8    1         0.1706073157E-02      0.4183391122E-02

    ------------------------------------------------
       NWT REQUIRED            6 OUTER ITERATIONS 
       AND A TOTAL OF         11 INNER ITERATIONS.
    ------------------------------------------------

 NO OUTPUT CONTROL FOR STRESS PERIOD    6   TIME STEP   10
 
 SOLVING FOR HEAD 
                                                   Max.-Head-Change                         Max.-Flux-Residual
  Residual-Control   Outer-Iter.   Inner-Iter.     Column Row Layer    Maximum-Head-Change  Column Row Layer    Maximum-Flux-Residual          L2-NORM 
          0                 1           2             5    8     1       0.4847380836E-01       5    8    1         0.2651798884E+01      0.6036102041E+01
          0                 2           2             4    7     1      -0.1680055236E+00       5    8    1        -0.9157087256E+01      0.2232722049E+02
          0                 3           2             4    7     1       0.1087797626E+00       5    8    1         0.6011543949E+01      0.1471531113E+02
          0                 4           2             4    7     1      -0.1611195719E+00       5    8    1        -0.9137707970E+01      0.2238238674E+02
          0                 5           2             4    7     1       0.1986518222E-02       4    7    1         0.1157795208E+00      0.2836540973E+00
          0                 6           1             4    7     1       0.2921616148E-04       5    8    1         0.1706085823E-02      0.4183404808E-02

    ------------------------------------------------
       NWT REQUIRED            6 OUTER ITERATIONS 
       AND A TOTAL OF         11 INNER ITERATIONS.
    ------------------------------------------------

 NO OUTPUT CONTROL FOR STRESS PERIOD    6   TIME STEP   11
 
 SOLVING FOR HEAD 
                                                   Max.-Head-Change                         Max.-Flux-Residual
  Residual-Control   Outer-Iter.   Inner-Iter.     Column Row Layer    Maximum-Head-Change  Column Row Layer    Maximum-Flux-Residual          L2-NORM 
          0                 1           2             5    8     1       0.5279479901E-01       5    8    1         0.2888953458E+01      0.6556863882E+01
          0                 2           2             4    7     1      -0.1681599682E+00       5    8    1        -0.9180802256E+01      0.2236966631E+02
          0                 3           2             4    7     1       0.1087905678E+00       5    8    1         0.6013213372E+01      0.1471825928E+02
          0                 4           2             4    7     1      -0.1611204625E+00       5    8    1        -0.9137777142E+01      0.2238250836E+02
          0                 5           2             4    7     1       0.1986529207E-02       4    7    1         0.1157798120E+00      0.2836553767E+00
          0                 6           1             4    7     1       0.2921632290E-04       5    8    1         0.1706097843E-02      0.4183418359E-02

    ------------------------------------------------
       NWT REQUIRED            6 OUTER ITERATIONS 
       AND A TOTAL OF         11 INNER ITERATIONS.
    ------------------------------------------------

 NO OUTPUT CONTROL FOR STRESS PERIOD    6   TIME STEP   12
 
 SOLVING FOR HEAD 
                                                   Max.-Head-Change                         Max.-Flux-Residual
  Residual-Control   Outer-Iter.   Inner-Iter.     Column Row Layer    Maximum-Head-Change  Column Row Layer    Maximum-Flux-Residual          L2-NORM 
          0                 1           2             5    8     1       0.5688977232E-01       5    8    1         0.3113498733E+01      0.7056741178E+01
          0                 2           2             4    7     1      -0.1683188158E+00       5    8    1        -0.9203256310E+01      0.2241074531E+02
          0                 3           2             4    7     1       0.1088016848E+00       5    8    1         0.6014793883E+01      0.1472110928E+02
          0                 4           2             4    7     1      -0.1611213851E+00       5    8    1        -0.9137842616E+01      0.2238262584E+02
          0                 5           2             4    7     1       0.1986540584E-02       4    7    1         0.1157801128E+00      0.2836566539E+00
          0                 6           1             4    7     1       0.2921649014E-04       5    8    1         0.1706109211E-02      0.4183437966E-02

    ------------------------------------------------
       NWT REQUIRED            6 OUTER ITERATIONS 
       AND A TOTAL OF         11 INNER ITERATIONS.
    ------------------------------------------------

 NO OUTPUT CONTROL FOR STRESS PERIOD    6   TIME STEP   13
 
 SOLVING FOR HEAD 
                                                   Max.-Head-Change                         Max.-Flux-Residual
  Residual-Control   Outer-Iter.   Inner-Iter.     Column Row Layer    Maximum-Head-Change  Column Row Layer    Maximum-Flux-Residual          L2-NORM 
          0                 1           2             5    8     1       0.6077382273E-01       5    8    1         0.3326285282E+01      0.7536510675E+01
          0                 2           2             4    7     1      -0.1684815640E+00       5    8    1        -0.9224534480E+01      0.2245051413E+02
          0                 3           2             4    7     1       0.1088130782E+00       5    8    1         0.6016291485E+01      0.1472386382E+02
          0                 4           2             4    7     1      -0.1611223364E+00       5    8    1        -0.9137904642E+01      0.2238273927E+02
          0                 5           2             4    7     1       0.1986552315E-02       4    7    1         0.1157804221E+00      0.2836578798E+00
          0                 6           1             4    7     1       0.2921666275E-04       5    8    1         0.1706119960E-02      0.4183452692E-02

    ------------------------------------------------
       NWT REQUIRED            6 OUTER ITERATIONS 
       AND A TOTAL OF         11 INNER ITERATIONS.
    ------------------------------------------------

 NO OUTPUT CONTROL FOR STRESS PERIOD    6   TIME STEP   14
 
 SOLVING FOR HEAD 
                                                   Max.-Head-Change                         Max.-Flux-Residual
  Residual-Control   Outer-Iter.   Inner-Iter.     Column Row Layer    Maximum-Head-Change  Column Row Layer    Maximum-Flux-Residual          L2-NORM 
          0                 1           2             5    8     1       0.6446141263E-01       5    8    1         0.3528127152E+01      0.7997055962E+01
          0                 2           2             4    7     1      -0.1686477045E+00       5    8    1        -0.9244718175E+01      0.2248902925E+02
          0                 3           2             4    7     1       0.1088247125E+00       5    8    1         0.6017709151E+01      0.1472652774E+02
          0                 4           2             4    7     1      -0.1611233135E+00       5    8    1        -0.9137963255E+01      0.2238284887E+02
          0                 5           2             4    7     1       0.1986564364E-02       4    7    1         0.1157807388E+00      0.2836591105E+00
          0                 6           1             4    7     1       0.2921683974E-04       5    8    1         0.1706131249E-02      0.4183473614E-02

    ------------------------------------------------
       NWT REQUIRED            6 OUTER ITERATIONS 
       AND A TOTAL OF         11 INNER ITERATIONS.
    ------------------------------------------------

 NO OUTPUT CONTROL FOR STRESS PERIOD    6   TIME STEP   15
 
 SOLVING FOR HEAD 
                                                   Max.-Head-Change                         Max.-Flux-Residual
  Residual-Control   Outer-Iter.   Inner-Iter.     Column Row Layer    Maximum-Head-Change  Column Row Layer    Maximum-Flux-Residual          L2-NORM 
          0                 1           2             5    8     1       0.6796531120E-01       5    8    1         0.3719742829E+01      0.8439290355E+01
          0                 2           2             4    7     1      -0.1688168020E+00       5    8    1        -0.9263879245E+01      0.2252634327E+02
          0                 3           2             4    7     1       0.1088365572E+00       5    8    1         0.6019051638E+01      0.1472910534E+02
          0                 4           2             4    7     1      -0.1611243135E+00       5    8    1        -0.9138018652E+01      0.2238295485E+02
          0                 5           2             4    7     1       0.1986576695E-02       4    7    1         0.1157810621E+00      0.2836602993E+00
          0                 6           1             4    7     1       0.2921702132E-04       5    8    1         0.1706142384E-02      0.4183490162E-02

    ------------------------------------------------
       NWT REQUIRED            6 OUTER ITERATIONS 
       AND A TOTAL OF         11 INNER ITERATIONS.
    ------------------------------------------------

 NO OUTPUT CONTROL FOR STRESS PERIOD    6   TIME STEP   16
 
 SOLVING FOR HEAD 
                                                   Max.-Head-Change                         Max.-Flux-Residual
  Residual-Control   Outer-Iter.   Inner-Iter.     Column Row Layer    Maximum-Head-Change  Column Row Layer    Maximum-Flux-Residual          L2-NORM 
          0                 1           2             5    8     1       0.7129771803E-01       5    8    1         0.3901817942E+01      0.8864123227E+01
          0                 2           2             5    7     1      -0.1690104842E+00       5    8    1        -0.9282086258E+01      0.2256250457E+02
          0                 3           2             4    7     1       0.1088485811E+00       5    8    1         0.6020326138E+01      0.1473160274E+02
          0                 4           2             4    7     1      -0.1611253341E+00       5    8    1        -0.9138071216E+01      0.2238305749E+02
          0                 5           2             4    7     1       0.1986589279E-02       4    7    1         0.1157813910E+00      0.2836614338E+00
          0                 6           1             4    7     1       0.2921720614E-04       5    8    1         0.1706151858E-02      0.4183504973E-02

    ------------------------------------------------
       NWT REQUIRED            6 OUTER ITERATIONS 
       AND A TOTAL OF         11 INNER ITERATIONS.
    ------------------------------------------------

 NO OUTPUT CONTROL FOR STRESS PERIOD    6   TIME STEP   17
 
 SOLVING FOR HEAD 
                                                   Max.-Head-Change                         Max.-Flux-Residual
  Residual-Control   Outer-Iter.   Inner-Iter.     Column Row Layer    Maximum-Head-Change  Column Row Layer    Maximum-Flux-Residual          L2-NORM 
          0                 1           2             5    8     1       0.7446987884E-01       5    8    1         0.4074984914E+01      0.9272507879E+01
          0                 2           2             5    7     1      -0.1692588755E+00       5    8    1        -0.9299402457E+01      0.2259756879E+02
          0                 3           2             4    7     1       0.1088607575E+00       5    8    1         0.6021538283E+01      0.1473402412E+02
          0                 4           2             4    7     1      -0.1611263725E+00       5    8    1        -0.9138121200E+01      0.2238315700E+02
          0                 5           2             4    7     1       0.1986602081E-02       4    7    1         0.1157817248E+00      0.2836625452E+00
          0                 6           1             4    7     1       0.2921739455E-04       5    8    1         0.1706160816E-02      0.4183518790E-02

    ------------------------------------------------
       NWT REQUIRED            6 OUTER ITERATIONS 
       AND A TOTAL OF         11 INNER ITERATIONS.
    ------------------------------------------------

 NO OUTPUT CONTROL FOR STRESS PERIOD    6   TIME STEP   18
 
 SOLVING FOR HEAD 
                                                   Max.-Head-Change                         Max.-Flux-Residual
  Residual-Control   Outer-Iter.   Inner-Iter.     Column Row Layer    Maximum-Head-Change  Column Row Layer    Maximum-Flux-Residual          L2-NORM 
          0                 1           2             5    8     1       0.7749218344E-01       5    8    1         0.4239827159E+01      0.9665321986E+01
          0                 2           2             5    7     1      -0.1695019638E+00       5    8    1        -0.9315886185E+01      0.2263157457E+02
          0                 3           2             4    7     1       0.1088730596E+00       5    8    1         0.6022692158E+01      0.1473637260E+02
          0                 4           2             4    7     1      -0.1611274265E+00       5    8    1        -0.9138168775E+01      0.2238325350E+02
          0                 5           2             4    7     1       0.1986615075E-02       4    7    1         0.1157820626E+00      0.2836636257E+00
          0                 6           1             4    7     1       0.2921758576E-04       5    8    1         0.1706169339E-02      0.4183532119E-02

    ------------------------------------------------
       NWT REQUIRED            6 OUTER ITERATIONS 
       AND A TOTAL OF         11 INNER ITERATIONS.
    ------------------------------------------------

 NO OUTPUT CONTROL FOR STRESS PERIOD    6   TIME STEP   19
 
 SOLVING FOR HEAD 
                                                   Max.-Head-Change                         Max.-Flux-Residual
  Residual-Control   Outer-Iter.   Inner-Iter.     Column Row Layer    Maximum-Head-Change  Column Row Layer    Maximum-Flux-Residual          L2-NORM 
          0                 1           2             5    8     1       0.8037394573E-01       5    8    1         0.4396867442E+01      0.1004330139E+02
          0                 2           2             5    7     1      -0.1697398033E+00       5    8    1        -0.9331589722E+01      0.2266456721E+02
          0                 3           2             4    7     1       0.1088854638E+00       5    8    1         0.6023791421E+01      0.1473865130E+02
          0                 4           2             4    7     1      -0.1611284939E+00       5    8    1        -0.9138214091E+01      0.2238334712E+02
          0                 5           2             4    7     1       0.1986628236E-02       4    7    1         0.1157824039E+00      0.2836646767E+00
          0                 6           1             4    7     1       0.2921777877E-04       5    8    1         0.1706177444E-02      0.4183545272E-02

    ------------------------------------------------
       NWT REQUIRED            6 OUTER ITERATIONS 
       AND A TOTAL OF         11 INNER ITERATIONS.
    ------------------------------------------------

 NO OUTPUT CONTROL FOR STRESS PERIOD    6   TIME STEP   20
 
 SOLVING FOR HEAD 
                                                   Max.-Head-Change                         Max.-Flux-Residual
  Residual-Control   Outer-Iter.   Inner-Iter.     Column Row Layer    Maximum-Head-Change  Column Row Layer    Maximum-Flux-Residual          L2-NORM 
          0                 1           2             5    8     1       0.8312420080E-01       5    8    1         0.4546612287E+01      0.1040721330E+02
          0                 2           2             5    7     1      -0.1699724606E+00       5    8    1        -0.9346563719E+01      0.2269658940E+02
          0                 3           2             4    7     1       0.1088979475E+00       5    8    1         0.6024839618E+01      0.1474086322E+02
          0                 4           2             4    7     1      -0.1611295729E+00       5    8    1        -0.9138257294E+01      0.2238343798E+02
          0                 5           2             4    7     1       0.1986641537E-02       4    7    1         0.1157827478E+00      0.2836656995E+00
          0                 6           1             4    7     1       0.2921797491E-04       5    8    1         0.1706185168E-02      0.4183557800E-02

    ------------------------------------------------
       NWT REQUIRED            6 OUTER ITERATIONS 
       AND A TOTAL OF         11 INNER ITERATIONS.
    ------------------------------------------------

 NO OUTPUT CONTROL FOR STRESS PERIOD    6   TIME STEP   21
 
 SOLVING FOR HEAD 
                                                   Max.-Head-Change                         Max.-Flux-Residual
  Residual-Control   Outer-Iter.   Inner-Iter.     Column Row Layer    Maximum-Head-Change  Column Row Layer    Maximum-Flux-Residual          L2-NORM 
          0                 1           2             5    8     1       0.8575116320E-01       5    8    1         0.4689522330E+01      0.1075779951E+02
          0                 2           2             5    7     1      -0.1701999841E+00       5    8    1        -0.9360854242E+01      0.2272767990E+02
          0                 3           2             4    7     1       0.1089104907E+00       5    8    1         0.6025839973E+01      0.1474301112E+02
          0                 4           2             4    7     1      -0.1611306615E+00       5    8    1        -0.9138298520E+01      0.2238352620E+02
          0                 5           2             4    7     1       0.1986654958E-02       4    7    1         0.1157830938E+00      0.2836666946E+00
          0                 6           1             4    7     1       0.2921817228E-04       5    8    1         0.1706192535E-02      0.4183570352E-02

    ------------------------------------------------
       NWT REQUIRED            6 OUTER ITERATIONS 
       AND A TOTAL OF         11 INNER ITERATIONS.
    ------------------------------------------------

 NO OUTPUT CONTROL FOR STRESS PERIOD    6   TIME STEP   22
 
 SOLVING FOR HEAD 
                                                   Max.-Head-Change                         Max.-Flux-Residual
  Residual-Control   Outer-Iter.   Inner-Iter.     Column Row Layer    Maximum-Head-Change  Column Row Layer    Maximum-Flux-Residual          L2-NORM 
          0                 1           2             5    8     1       0.8826257849E-01       5    8    1         0.4826031331E+01      0.1109575274E+02
          0                 2           2             5    7     1      -0.1704224608E+00       5    8    1        -0.9374504667E+01      0.2275787756E+02
          0                 3           2             4    7     1       0.1089230722E+00       5    8    1         0.6026795522E+01      0.1474509768E+02
          0                 4           2             4    7     1      -0.1611317580E+00       5    8    1        -0.9138337892E+01      0.2238361189E+02
          0                 5           2             4    7     1       0.1986668475E-02       4    7    1         0.1157834413E+00      0.2836676637E+00
          0                 6           1             4    7     1       0.2921837122E-04       5    8    1         0.1706199557E-02      0.4183583147E-02

    ------------------------------------------------
       NWT REQUIRED            6 OUTER ITERATIONS 
       AND A TOTAL OF         11 INNER ITERATIONS.
    ------------------------------------------------

 NO OUTPUT CONTROL FOR STRESS PERIOD    6   TIME STEP   23
 
 SOLVING FOR HEAD 
                                                   Max.-Head-Change                         Max.-Flux-Residual
  Residual-Control   Outer-Iter.   Inner-Iter.     Column Row Layer    Maximum-Head-Change  Column Row Layer    Maximum-Flux-Residual          L2-NORM 
          0                 1           2             5    8     1       0.9066519473E-01       5    8    1         0.4956517430E+01      0.1142171573E+02
          0                 2           2             5    7     1      -0.1706399703E+00       5    8    1        -0.9387552809E+01      0.2278721719E+02
          0                 3           2             4    7     1       0.1089356760E+00       5    8    1         0.6027708912E+01      0.1474712537E+02
          0                 4           2             4    7     1      -0.1611328608E+00       5    8    1        -0.9138375521E+01      0.2238369514E+02
          0                 5           2             4    7     1       0.1986682069E-02       4    7    1         0.1157837898E+00      0.2836686071E+00
          0                 6           1             4    7     1       0.2921857083E-04       5    8    1         0.1706206259E-02      0.4183594078E-02

    ------------------------------------------------
       NWT REQUIRED            6 OUTER ITERATIONS 
       AND A TOTAL OF         11 INNER ITERATIONS.
    ------------------------------------------------

 NO OUTPUT CONTROL FOR STRESS PERIOD    6   TIME STEP   24
 
 SOLVING FOR HEAD 
                                                   Max.-Head-Change                         Max.-Flux-Residual
  Residual-Control   Outer-Iter.   Inner-Iter.     Column Row Layer    Maximum-Head-Change  Column Row Layer    Maximum-Flux-Residual          L2-NORM 
          0                 1           2             5    8     1       0.9296597337E-01       5    8    1         0.5081369646E+01      0.1173630361E+02
          0                 2           2             5    7     1      -0.1708525982E+00       5    8    1        -0.9400037571E+01      0.2281573364E+02
          0                 3           2             4    7     1       0.1089482846E+00       5    8    1         0.6028582867E+01      0.1474909660E+02
          0                 4           2             4    7     1      -0.1611339684E+00       5    8    1        -0.9138411520E+01      0.2238377607E+02
          0                 5           2             4    7     1       0.1986695723E-02       4    7    1         0.1157841389E+00      0.2836695260E+00
          0                 6           1             4    7     1       0.2921877168E-04       5    8    1         0.1706212645E-02      0.4183604988E-02

    ------------------------------------------------
       NWT REQUIRED            6 OUTER ITERATIONS 
       AND A TOTAL OF         11 INNER ITERATIONS.
    ------------------------------------------------

 NO OUTPUT CONTROL FOR STRESS PERIOD    6   TIME STEP   25
 
 SOLVING FOR HEAD 
                                                   Max.-Head-Change                         Max.-Flux-Residual
  Residual-Control   Outer-Iter.   Inner-Iter.     Column Row Layer    Maximum-Head-Change  Column Row Layer    Maximum-Flux-Residual          L2-NORM 
          0                 1           2             5    8     1       0.9517080353E-01       5    8    1         0.5200917641E+01      0.1204008787E+02
          0                 2           2             5    7     1      -0.1710604351E+00       5    8    1        -0.9411991919E+01      0.2284345978E+02
          0                 3           2             4    7     1       0.1089608839E+00       5    8    1         0.6029419693E+01      0.1475101363E+02
          0                 4           2             4    7     1      -0.1611350795E+00       5    8    1        -0.9138445984E+01      0.2238385477E+02
          0                 5           2             4    7     1       0.1986709419E-02       4    7    1         0.1157844879E+00      0.2836704217E+00
          0                 6           1             4    7     1       0.2921897308E-04       5    8    1         0.1706218763E-02      0.4183615753E-02

    ------------------------------------------------
       NWT REQUIRED            6 OUTER ITERATIONS 
       AND A TOTAL OF         11 INNER ITERATIONS.
    ------------------------------------------------

 NO OUTPUT CONTROL FOR STRESS PERIOD    6   TIME STEP   26
 
 SOLVING FOR HEAD 
                                                   Max.-Head-Change                         Max.-Flux-Residual
  Residual-Control   Outer-Iter.   Inner-Iter.     Column Row Layer    Maximum-Head-Change  Column Row Layer    Maximum-Flux-Residual          L2-NORM 
          0                 1           2             5    8     1       0.9728529208E-01       5    8    1         0.5315474606E+01      0.1233361435E+02
          0                 2           2             5    7     1      -0.1712636039E+00       5    8    1        -0.9423447173E+01      0.2287042607E+02
          0                 3           2             4    7     1       0.1089734581E+00       5    8    1         0.6030221583E+01      0.1475287920E+02
          0                 4           2             4    7     1      -0.1611361926E+00       5    8    1        -0.9138479004E+01      0.2238393132E+02
          0                 5           2             4    7     1       0.1986723140E-02       4    7    1         0.1157848366E+00      0.2836712949E+00
          0                 6           1             4    7     1       0.2921917527E-04       5    8    1         0.1706224618E-02      0.4183626294E-02

    ------------------------------------------------
       NWT REQUIRED            6 OUTER ITERATIONS 
       AND A TOTAL OF         11 INNER ITERATIONS.
    ------------------------------------------------

 NO OUTPUT CONTROL FOR STRESS PERIOD    6   TIME STEP   27
 
 SOLVING FOR HEAD 
                                                   Max.-Head-Change                         Max.-Flux-Residual
  Residual-Control   Outer-Iter.   Inner-Iter.     Column Row Layer    Maximum-Head-Change  Column Row Layer    Maximum-Flux-Residual          L2-NORM 
          0                 1           2             5    8     1       0.9931506852E-01       5    8    1         0.5425354716E+01      0.1261739679E+02
          0                 2           2             5    7     1      -0.1714621717E+00       5    8    1        -0.9434434749E+01      0.2289666334E+02
          0                 3           2             4    7     1       0.1089859974E+00       5    8    1         0.6030990736E+01      0.1475469420E+02
          0                 4           2             4    7     1      -0.1611373068E+00       5    8    1        -0.9138510671E+01      0.2238400581E+02
          0                 5           2             4    7     1       0.1986736874E-02       4    7    1         0.1157851846E+00      0.2836721467E+00
          0                 6           1             4    7     1       0.2921937690E-04       5    8    1         0.1706230221E-02      0.4183636788E-02

    ------------------------------------------------
       NWT REQUIRED            6 OUTER ITERATIONS 
       AND A TOTAL OF         11 INNER ITERATIONS.
    ------------------------------------------------

 NO OUTPUT CONTROL FOR STRESS PERIOD    6   TIME STEP   28
 
 SOLVING FOR HEAD 
                                                   Max.-Head-Change                         Max.-Flux-Residual
  Residual-Control   Outer-Iter.   Inner-Iter.     Column Row Layer    Maximum-Head-Change  Column Row Layer    Maximum-Flux-Residual          L2-NORM 
          0                 1           2             5    8     1       0.1012646538E+00       5    8    1         0.5530810786E+01      0.1289189919E+02
          0                 2           2             5    7     1      -0.1716562664E+00       5    8    1        -0.9444979931E+01      0.2292219848E+02
          0                 3           2             4    7     1       0.1089984872E+00       5    8    1         0.6031728922E+01      0.1475646111E+02
          0                 4           2             4    7     1      -0.1611384208E+00       5    8    1        -0.9138541058E+01      0.2238407831E+02
          0                 5           2             4    7     1       0.1986750606E-02       4    7    1         0.1157855314E+00      0.2836729769E+00
          0                 6           1             4    7     1       0.2921957875E-04       5    8    1         0.1706235578E-02      0.4183646846E-02

    ------------------------------------------------
       NWT REQUIRED            6 OUTER ITERATIONS 
       AND A TOTAL OF         11 INNER ITERATIONS.
    ------------------------------------------------

 NO OUTPUT CONTROL FOR STRESS PERIOD    6   TIME STEP   29
 
 SOLVING FOR HEAD 
                                                   Max.-Head-Change                         Max.-Flux-Residual
  Residual-Control   Outer-Iter.   Inner-Iter.     Column Row Layer    Maximum-Head-Change  Column Row Layer    Maximum-Flux-Residual          L2-NORM 
          0                 1           2             5    8     1       0.1031377655E+00       5    8    1         0.5632108502E+01      0.1315074902E+02
          0                 2           2             5    7     1      -0.1718458696E+00       5    8    1        -0.9455109259E+01      0.2294064636E+02
          0                 3           2             4    7     1       0.1016837639E+00       5    8    1         0.5628198347E+01      0.1376798922E+02
          0                 4           2             4    7     1      -0.1490456889E+00       5    8    1        -0.8452758072E+01      0.2070425286E+02
          0                 5           2             4    7     1       0.1837664520E-02       4    7    1         0.1070965527E+00      0.2623857061E+00
          0                 6           1             4    7     1       0.2702693856E-04       5    8    1         0.1578200289E-02      0.3869692163E-02

    ------------------------------------------------
       NWT REQUIRED            6 OUTER ITERATIONS 
       AND A TOTAL OF         11 INNER ITERATIONS.
    ------------------------------------------------

 NO OUTPUT CONTROL FOR STRESS PERIOD    6   TIME STEP   30



 STREAM LISTING     PERIOD      6   STEP       30

 LAYER ROW COL. STREAM  RCH.  FLOW INTO     FLOW TO   FLOW OUT OF   OVRLND.     DIRECT     STREAM       STREAM     STREAM     STREAM   STREAMBED  STREAMBED
                SEG.NO.  NO.  STRM. RCH.    AQUIFER    STRM. RCH.    RUNOFF     PRECIP       ET          HEAD       DEPTH      WIDTH   CONDCTNC.   GRADIENT

   1    1    1     1     1    3.4633E+01  2.8494E-01   3.4348E+01  0.000E+00  0.000E+00  0.000E+00  1.09434E+03  1.289E+00  1.476E+01  6.643E-02  1.430E+00
   1    2    2     1     2    3.4348E+01  4.4115E-01   3.3907E+01  0.000E+00  0.000E+00  0.000E+00  1.08934E+03  1.286E+00  1.470E+01  1.029E-01  1.429E+00
   1    3    3     1     3    3.3907E+01  3.7610E-01   3.3531E+01  0.000E+00  0.000E+00  0.000E+00  1.08370E+03  1.283E+00  1.464E+01  8.782E-02  1.428E+00
   1    3    4     1     4    3.3531E+01  3.4622E-01   3.3185E+01  0.000E+00  0.000E+00  0.000E+00  1.07869E+03  1.280E+00  1.458E+01  8.090E-02  1.427E+00
   1    4    5     2     1    3.1185E+01  3.4119E-01   3.0843E+01  0.000E+00  0.000E+00  0.000E+00  1.07331E+03  1.374E+00  1.200E+01  7.800E-02  1.458E+00
   1    5    6     2     2    3.0843E+01  2.6198E-01   3.0581E+01  0.000E+00  0.000E+00  0.000E+00  1.06788E+03  1.366E+00  1.200E+01  6.000E-02  1.455E+00
   1    6    6     2     3    3.0581E+01  2.6156E-01   3.0320E+01  0.000E+00  0.000E+00  0.000E+00  1.06315E+03  1.359E+00  1.200E+01  6.000E-02  1.453E+00
   1    7    6     2     4    3.0320E+01  2.6113E-01   3.0059E+01  0.000E+00  0.000E+00  0.000E+00  1.05843E+03  1.352E+00  1.200E+01  6.000E-02  1.451E+00
   1    8    6     2     5    3.0059E+01  2.6071E-01   2.9798E+01  0.000E+00  0.000E+00  0.000E+00  1.05370E+03  1.345E+00  1.200E+01  6.000E-02  1.448E+00
   1    3    5     3     1    2.0000E+00  2.8252E-01   1.7175E+00  0.000E+00  0.000E+00  0.000E+00  1.07555E+03  1.909E+00  9.636E+00  7.227E-02  1.955E+00
   1    3    6     3     2    1.7175E+00  2.4905E-01   1.4684E+00  0.000E+00  0.000E+00  0.000E+00  1.07264E+03  1.727E+00  8.909E+00  6.682E-02  1.864E+00
   1    3    7     3     3    1.4684E+00  1.9718E-01   1.2712E+00  0.000E+00  0.000E+00  0.000E+00  1.06987E+03  1.555E+00  8.218E+00  5.547E-02  1.777E+00
   1    4    8     3     4    1.2712E+00  2.2567E-01   1.0456E+00  0.000E+00  0.000E+00  0.000E+00  1.06682E+03  1.364E+00  7.455E+00  6.709E-02  1.682E+00
   1    5    8     3     5    1.0456E+00  1.5790E-01   8.8768E-01  0.000E+00  0.000E+00  0.000E+00  1.06362E+03  1.164E+00  6.655E+00  4.991E-02  1.582E+00
   1    6    8     3     6    8.8768E-01  5.5980E-02   8.3170E-01  0.000E+00  0.000E+00  0.000E+00  1.06158E+03  1.036E+00  6.145E+00  1.844E-02  1.518E+00
   1    5   10     4     1    1.0000E+01  9.0919E-02   9.9091E+00  0.000E+00  0.000E+00  0.000E+00  1.07836E+03  6.368E-01  1.000E+01  2.500E-02  1.212E+00
   1    5    9     4     2    9.9091E+00  1.8158E-01   9.7275E+00  0.000E+00  0.000E+00  0.000E+00  1.07154E+03  6.315E-01  1.000E+01  5.000E-02  1.211E+00
   1    6    8     4     3    9.7275E+00  1.2689E-01   9.6006E+00  0.000E+00  0.000E+00  0.000E+00  1.06381E+03  6.256E-01  1.000E+01  3.500E-02  1.209E+00
   1    6    8     5     1    1.0432E+01  2.2686E-01   1.0205E+01  0.000E+00  0.000E+00  0.000E+00  1.05868E+03  6.790E-01  1.542E+01  6.166E-02  1.226E+00
   1    7    7     5     2    1.0205E+01  2.7894E-01   9.9265E+00  0.000E+00  0.000E+00  0.000E+00  1.05417E+03  6.732E-01  1.519E+01  7.594E-02  1.224E+00
   1    8    7     5     3    9.9265E+00  1.9221E-01   9.7343E+00  0.000E+00  0.000E+00  0.000E+00  1.04992E+03  6.676E-01  1.497E+01  5.241E-02  1.223E+00
   1    8    6     5     4    9.7343E+00  1.3577E-01   9.5985E+00  0.000E+00  0.000E+00  0.000E+00  1.04691E+03  6.637E-01  1.482E+01  3.706E-02  1.221E+00
   1    9    6     6     1    9.5985E+00  2.2097E-01   9.3776E+00  0.000E+00  0.000E+00  0.000E+00  1.04341E+03  6.828E-01  1.200E+01  6.000E-02  1.228E+00
   1   10    7     6     2    9.3776E+00  2.2039E-01   9.1572E+00  0.000E+00  0.000E+00  0.000E+00  1.03885E+03  6.732E-01  1.200E+01  6.000E-02  1.224E+00
   1   11    7     6     3    9.1572E+00  2.1981E-01   8.9374E+00  0.000E+00  0.000E+00  0.000E+00  1.03430E+03  6.636E-01  1.200E+01  6.000E-02  1.221E+00
   1   12    7     6     4    8.9374E+00  2.1923E-01   8.7181E+00  0.000E+00  0.000E+00  0.000E+00  1.02974E+03  6.539E-01  1.200E+01  6.000E-02  1.218E+00
   1   13    7     6     5    8.7181E+00 -6.6255E-02   8.7844E+00  0.000E+00  0.000E+00  0.000E+00  1.02656E+03  6.504E-01  1.200E+01  2.400E-01 -9.202E-02
   1   14    9     7     1    1.5000E+02  1.3677E+00   1.4863E+02  0.000E+00  0.000E+00  0.000E+00  1.03987E+03  2.288E+00  5.529E+01  5.593E-01  8.152E-01
   1   13    8     7     2    1.4863E+02  1.9171E+00   1.4672E+02  0.000E+00  0.000E+00  0.000E+00  1.03478E+03  2.279E+00  5.526E+01  6.148E-01  1.040E+00
   1   13    7     7     3    1.4672E+02  1.5933E+00   1.4512E+02  0.000E+00  0.000E+00  0.000E+00  1.02969E+03  2.270E+00  5.521E+01  5.584E-01  9.511E-01
   1   13    6     8     1    1.5391E+02  9.4160E-01   1.5296E+02  0.000E+00  0.000E+00  0.000E+00  1.02472E+03  2.841E+00  4.119E+01  4.198E-01  7.477E-01
   1   13    5     8     2    1.5296E+02  2.0311E-01   1.5276E+02  0.000E+00  0.000E+00  0.000E+00  1.01846E+03  2.837E+00  4.113E+01  4.192E-01  1.615E-01
   1   13    4     8     3    1.5276E+02 -2.3400E+00   1.5510E+02  0.000E+00  0.000E+00  0.000E+00  1.01222E+03  2.844E+00  4.124E+01  4.203E+00 -1.856E-01
   1   13    3     8     4    1.5510E+02 -3.6048E+00   1.5871E+02  0.000E+00  0.000E+00  0.000E+00  1.00599E+03  2.865E+00  4.154E+01  4.233E+00 -2.839E-01
   1   13    2     8     5    1.5871E+02 -2.5958E+00   1.6130E+02  0.000E+00  0.000E+00  0.000E+00  9.99761E+02  2.886E+00  4.185E+01  4.264E+00 -2.029E-01
   1   13    1     8     6    1.6130E+02 -2.0116E+00   1.6331E+02  0.000E+00  0.000E+00  0.000E+00  9.94776E+02  2.901E+00  4.207E+01  2.572E+00 -2.607E-01
   1    8    6     9     1    2.9798E+01  0.0000E+00   2.9798E+01  0.000E+00  0.000E+00  0.000E+00  1.08311E+03  4.363E+00  4.000E+00  0.000E+00  2.454E+00
   1    8    5     9     2    2.9798E+01  0.0000E+00   2.9798E+01  0.000E+00  0.000E+00  0.000E+00  1.08261E+03  4.363E+00  4.000E+00  0.000E+00  2.454E+00





UNSATURATED ZONE PACKAGE VOLUMETRIC BUDGET FOR  TIME STEP    30 STRESS PERIOD    6
  ------------------------------------------------------------------------------



     CUMULATIVE VOLUMES      L**3       RATES FOR THIS TIME STEP      L**3/T
     ------------------                 ------------------------

           IN:                                      IN:
           ---                                      ---
        INFILTRATION =   318681700.3872          INFILTRATION =         103.5353

          OUT:                                     OUT:
          ----                                     ----
              UZF ET =    40498578.0385                UZF ET =           8.3175
        UZF RECHARGE =       73224.0000          UZF RECHARGE =       0.0000E+00

            IN - OUT =   278109898.3488              IN - OUT =          95.2178

          STORAGE:                                 STORAGE:
          --------                                 --------
      STORAGE CHANGE =   278113812.3151        STORAGE CHANGE =          95.2178

 PERCENT DISCREPANCY IS DIFFERENCE BETWEEN IN-OUT MINUS CHANGE IN STORAGE
 DIVIDED BY THE AVERAGE OF IN AND OUT TIMES 100

 PERCENT DISCREPANCY =          -0.00     PERCENT DISCREPANCY =          -0.00






1
  VOLUMETRIC BUDGET FOR AGRICULTURAL FIELDS AT  END OF TIME STEP   30, STRESS PERIOD   6
  ------------------------------------------------------------------------------

     CUMULATIVE VOLUMES      L**3       RATES FOR THIS TIME STEP      L**3/T
     ------------------                 ------------------------

           IN:                                      IN:
           ---                                      ---
               AG WELLS  =   223804848.0000                 AG WELLS  =          72.8891
      DIVERSION SEGMENTS =    83657672.0000        DIVERSION SEGMENTS =          29.7981
           GW IRRIGATION =           0.0000             GW IRRIGATION =           0.0000
           SW IRRIGATION =           0.0000             SW IRRIGATION =           0.0000
        SYSTEM LOSSES GW =           0.0000          SYSTEM LOSSES GW =           0.0000
        SYSTEM LOSSES SW =           0.0000          SYSTEM LOSSES SW =           0.0000

                TOTAL IN =   307462528.0000                  TOTAL IN =         102.6872

          OUT:                                     OUT:
          ----                                     ----
               AG WELLS  =           0.0000                 AG WELLS  =           0.0000
      DIVERSION SEGMENTS =           0.0000        DIVERSION SEGMENTS =           0.0000
           GW IRRIGATION =   223804848.0000             GW IRRIGATION =          72.8891
           SW IRRIGATION =    83659352.0000             SW IRRIGATION =          29.7987
        SYSTEM LOSSES GW =           0.0000          SYSTEM LOSSES GW =           0.0000
        SYSTEM LOSSES SW =           0.0000          SYSTEM LOSSES SW =           0.0000

               TOTAL OUT =   307464192.0000                 TOTAL OUT =         102.6878

                IN - OUT =       -1664.0000                  IN - OUT =      -5.9509E-04

     PERCENT DISCREPANCY =          -0.00         PERCENT DISCREPANCY =          -0.00



1
  VOLUMETRIC BUDGET FOR ENTIRE MODEL AT END OF TIME STEP   30, STRESS PERIOD   6
  ------------------------------------------------------------------------------

     CUMULATIVE VOLUMES      L**3       RATES FOR THIS TIME STEP      L**3/T
     ------------------                 ------------------------

           IN:                                      IN:
           ---                                      ---
             STORAGE     =   239809568.0000               STORAGE     =          72.1392
       CONSTANT HEAD     =           0.0000         CONSTANT HEAD     =           0.0000
     HEAD DEP BOUNDS     =     3810180.0000       HEAD DEP BOUNDS     =           0.2879
      STREAM LEAKAGE     =   155393904.0000        STREAM LEAKAGE     =          12.1397
        UZF RECHARGE     =       73223.9531          UZF RECHARGE     =           0.0000
               GW ET     =           0.0000                 GW ET     =           0.0000
     SURFACE LEAKAGE     =           0.0000       SURFACE LEAKAGE     =           0.0000
           AG WELLS      =           0.0000             AG WELLS      =           0.0000

                TOTAL IN =   399086848.0000                  TOTAL IN =          84.5669

          OUT:                                     OUT:
          ----                                     ----
             STORAGE     =    34719324.0000               STORAGE     =           0.7719
       CONSTANT HEAD     =           0.0000         CONSTANT HEAD     =           0.0000
     HEAD DEP BOUNDS     =     3814465.2500       HEAD DEP BOUNDS     =           0.2872
      STREAM LEAKAGE     =   136751840.0000        STREAM LEAKAGE     =          10.6185
        UZF RECHARGE     =           0.0000          UZF RECHARGE     =           0.0000
               GW ET     =           0.0000                 GW ET     =           0.0000
     SURFACE LEAKAGE     =           0.0000       SURFACE LEAKAGE     =           0.0000
           AG WELLS      =   223804848.0000             AG WELLS      =          72.8891

               TOTAL OUT =   399090496.0000                 TOTAL OUT =          84.5667

                IN - OUT =       -3648.0000                  IN - OUT =       1.2970E-04

     PERCENT DISCREPANCY =          -0.00         PERCENT DISCREPANCY =           0.00






         TIME SUMMARY AT END OF TIME STEP   30 IN STRESS PERIOD    6
                    SECONDS     MINUTES      HOURS       DAYS        YEARS
                    -----------------------------------------------------------
   TIME STEP LENGTH  87667.      1461.1      24.352      1.0147     2.77799E-03
 STRESS PERIOD TIME 2.63000E+06  43833.      730.56      30.440     8.33397E-02
         TOTAL TIME 1.32364E+07 2.20607E+05  3676.8      153.20     0.41944    
1
1
                            STRESS PERIOD NO.    7, LENGTH =   2630000.    
                            -----------------------------------------------

                              NUMBER OF TIME STEPS =    30

                               MULTIPLIER FOR DELT =     1.000

                            INITIAL TIME STEP SIZE =   87666.66    

 REUSING NON-PARAMETER GHB CELLS FROM LAST STRESS PERIOD

      2 GHB CELLS

 REUSING STREAM SEGMENT DATA FROM LAST STRESS PERIOD



            AREAL INFILTRATION RATE
 READING ON UNIT   19 WITH FORMAT: (FREE)              

            1           2           3           4           5           6           7           8           9          10
 ........................................................................................................................
   1   1.0000E-10  2.0000E-10   0.000       0.000       0.000       0.000       0.000       0.000       0.000       0.000    
   2   2.0000E-10  1.0000E-10  2.0000E-10   0.000       0.000      8.0000E-10  8.0000E-10  5.0000E-10   0.000       0.000    
   3    0.000      5.0000E-10  1.0000E-10  1.0000E-10  8.0000E-10  8.0000E-10  5.0000E-10  5.0000E-10   0.000       0.000    
   4   8.0000E-10  5.0000E-10  1.0000E-10  1.0000E-10  1.0000E-10  1.0000E-10  1.0000E-10  1.0000E-10  2.0000E-10   0.000    
   5   8.0000E-10  5.0000E-10  1.0000E-10  1.0000E-10  1.0000E-10  1.0000E-10  1.0000E-10  1.0000E-10  1.0000E-10  1.0000E-10
   6   8.0000E-10  5.0000E-10  5.0000E-10  2.0000E-10  2.0000E-10  1.0000E-10  1.0000E-10  1.0000E-10  1.0000E-10  5.0000E-10
   7   8.0000E-10  5.0000E-10  5.0000E-10  2.0000E-10  2.0000E-10  1.0000E-10  1.0000E-10  2.0000E-10  2.0000E-10   0.000    
   8    0.000      5.0000E-10  5.0000E-10  2.0000E-10  2.0000E-10  1.0000E-10  1.0000E-10  2.0000E-10  5.0000E-10   0.000    
   9    0.000      5.0000E-10  5.0000E-10  2.0000E-10  2.0000E-10  1.0000E-10  1.0000E-10  2.0000E-10  5.0000E-10   0.000    
  10    0.000      5.0000E-10  5.0000E-10  2.0000E-10  2.0000E-10  1.0000E-10  1.0000E-10  2.0000E-10  5.0000E-10  8.0000E-10
  11    0.000      1.0000E-10  1.0000E-10  1.0000E-10  1.0000E-10  1.0000E-10  1.0000E-10  2.0000E-10  5.0000E-10   0.000    
  12   1.0000E-10  1.0000E-10  1.0000E-10  1.0000E-10  1.0000E-10  1.0000E-10  1.0000E-10  1.0000E-10  2.0000E-10   0.000    
  13   1.0000E-10  1.0000E-10  2.0000E-10  2.0000E-10  2.0000E-10  2.0000E-10  2.0000E-10  1.0000E-10  1.0000E-10   0.000    
  14    0.000      2.0000E-10  5.0000E-10  5.0000E-10  5.0000E-10  5.0000E-10  5.0000E-10  2.0000E-10  1.0000E-10   0.000    
  15    0.000       0.000      8.0000E-10  8.0000E-10  8.0000E-10  8.0000E-10   0.000       0.000       0.000       0.000    

                  ET RATE =  1.500000E-07

 USING ET EXTINCTION DEPTH FROM PREVIOUS STRESS PERIOD. CURRENT PERIOD IS:       7

 USING EXTINCTION WATER CONTENT FROM PREVIOUS STRESS PERIOD. CURRENT PERIOD IS:       7

 USING AIR ENTRY PRESSURE FROM PREVIOUS STRESS PERIOD. CURRENT PERIOD IS:       7

 USING ROOT PRESSURE HEAD FROM PREVIOUS STRESS PERIOD. CURRENT PERIOD IS:       7

 USING ROOT ACTIVITY FROM PREVIOUS STRESS PERIOD. CURRENT PERIOD IS:       7

 PROCESSING AG STRESS PERIOD DATA

 READING AG STRESS PERIOD DATA

 READING IRRIGATION SEGMENT

 READING IRRIGATION WELL

 READING SUPPLEMENTAL WELL

 END PROCESSING AG STRESS PERIOD DATA OPTIONS
 
 SOLVING FOR HEAD 
                                                   Max.-Head-Change                         Max.-Flux-Residual
  Residual-Control   Outer-Iter.   Inner-Iter.     Column Row Layer    Maximum-Head-Change  Column Row Layer    Maximum-Flux-Residual          L2-NORM 
          0                 1           2             5    8     1       0.1047949524E+00       5    8    1         0.5721539989E+01      0.1335067932E+02
          0                 2           2             5    8     1      -0.1019352378E-01       5    8    1        -0.5721423849E+00      0.1335023266E+01
          0                 3           2             5    8     1       0.6941428174E-03       5    8    1         0.4005009412E-01      0.9345197387E-01
          0                 4           1             5    8     1      -0.2762058485E-04       5    8    1        -0.1638050623E-02      0.3822185714E-02

    ------------------------------------------------
       NWT REQUIRED            4 OUTER ITERATIONS 
       AND A TOTAL OF          7 INNER ITERATIONS.
    ------------------------------------------------

 NO OUTPUT CONTROL FOR STRESS PERIOD    7   TIME STEP    1
 
 SOLVING FOR HEAD 
                                                   Max.-Head-Change                         Max.-Flux-Residual
  Residual-Control   Outer-Iter.   Inner-Iter.     Column Row Layer    Maximum-Head-Change  Column Row Layer    Maximum-Flux-Residual          L2-NORM 
          0                 1           2             5    8     1       0.9983577815E-01       5    8    1         0.5445745305E+01      0.1288811439E+02
          0                 2           2             5    8     1      -0.9711146411E-02       5    8    1        -0.5445639645E+00      0.1295518024E+01
          0                 3           2             5    8     1       0.6612945593E-03       5    8    1         0.3811959395E-01      0.9066589717E-01
          0                 4           1             5    8     1      -0.2631352255E-04       5    8    1        -0.1559093097E-02      0.3706944123E-02

    ------------------------------------------------
       NWT REQUIRED            4 OUTER ITERATIONS 
       AND A TOTAL OF          7 INNER ITERATIONS.
    ------------------------------------------------

 NO OUTPUT CONTROL FOR STRESS PERIOD    7   TIME STEP    2
 
 SOLVING FOR HEAD 
                                                   Max.-Head-Change                         Max.-Flux-Residual
  Residual-Control   Outer-Iter.   Inner-Iter.     Column Row Layer    Maximum-Head-Change  Column Row Layer    Maximum-Flux-Residual          L2-NORM 
          0                 1           2             5    8     1       0.9519848205E-01       5    8    1         0.5188039176E+01      0.1241614614E+02
          0                 2           2             5    6     1      -0.7733460761E-01       5    8    1        -0.4263794397E+01      0.1030863800E+02
          0                 3           2             4    7     1       0.7303438830E-01       5    8    1         0.4043464721E+01      0.9890709170E+01
          0                 4           2             4    7     1      -0.2906136643E-02       5    8    1        -0.1653362606E+00      0.4044808692E+00
          0                 5           1             4    7     1       0.3583387598E-04       5    6    1         0.2092682238E-02      0.5129032264E-02

    ------------------------------------------------
       NWT REQUIRED            5 OUTER ITERATIONS 
       AND A TOTAL OF          9 INNER ITERATIONS.
    ------------------------------------------------

 NO OUTPUT CONTROL FOR STRESS PERIOD    7   TIME STEP    3
 
 SOLVING FOR HEAD 
                                                   Max.-Head-Change                         Max.-Flux-Residual
  Residual-Control   Outer-Iter.   Inner-Iter.     Column Row Layer    Maximum-Head-Change  Column Row Layer    Maximum-Flux-Residual          L2-NORM 
          0                 1           2             5    8     1       0.9085845878E-01       5    8    1         0.4947044714E+01      0.1197909350E+02
          0                 2           2             5    8     1      -0.8837923264E-02       5    8    1        -0.4946956551E+00      0.1205153578E+01
          0                 3           2             4    7     1      -0.6936510248E-01       4    7    1        -0.3722968345E+01      0.9144149066E+01
          0                 4           2             4    7     1       0.7260634948E-01       4    7    1         0.4005649164E+01      0.9810778092E+01
          0                 5           2             4    7     1      -0.2889790483E-02       5    8    1        -0.1638898597E+00      0.4014583045E+00
          0                 6           1             4    7     1       0.3565877403E-04       5    8    1         0.2079169623E-02      0.5093664098E-02

    ------------------------------------------------
       NWT REQUIRED            6 OUTER ITERATIONS 
       AND A TOTAL OF         11 INNER ITERATIONS.
    ------------------------------------------------

 NO OUTPUT CONTROL FOR STRESS PERIOD    7   TIME STEP    4
 
 SOLVING FOR HEAD 
                                                   Max.-Head-Change                         Max.-Flux-Residual
  Residual-Control   Outer-Iter.   Inner-Iter.     Column Row Layer    Maximum-Head-Change  Column Row Layer    Maximum-Flux-Residual          L2-NORM 
          0                 1           2             5    6     1       0.8683877256E-01       5    8    1         0.4721511006E+01      0.1156700569E+02
          0                 2           2             5    6     1      -0.8446926933E-02       5    8    1        -0.4721429999E+00      0.1164194357E+01
          0                 3           2             4    7     1      -0.6936350763E-01       4    7    1        -0.3722843971E+01      0.9146187727E+01
          0                 4           2             4    7     1       0.7260632780E-01       4    7    1         0.4005639935E+01      0.9810920008E+01
          0                 5           2             4    7     1      -0.2889789614E-02       5    8    1        -0.1638942812E+00      0.4014640569E+00
          0                 6           1             4    7     1       0.3565876350E-04       5    8    1         0.2079225107E-02      0.5093739840E-02

    ------------------------------------------------
       NWT REQUIRED            6 OUTER ITERATIONS 
       AND A TOTAL OF         11 INNER ITERATIONS.
    ------------------------------------------------

 OUTPUT CONTROL FOR STRESS PERIOD    7   TIME STEP    5
    PRINT BUDGET
    SAVE BUDGET
 UBDSV1 SAVING "         STORAGE" ON UNIT 102 AT TIME STEP  5, STRESS PERIOD   7
 UBDSV2 SAVING "   CONSTANT HEAD" ON UNIT 102 AT TIME STEP  5, STRESS PERIOD   7
 UBDSV1 SAVING "FLOW RIGHT FACE " ON UNIT 102 AT TIME STEP  5, STRESS PERIOD   7
 UBDSV1 SAVING "FLOW FRONT FACE " ON UNIT 102 AT TIME STEP  5, STRESS PERIOD   7

  HEAD DEP BOUNDS   PERIOD    7   STEP     5
 BOUNDARY      1   LAYER   1   ROW    13   COL     1   RATE   -0.287374    
 BOUNDARY      2   LAYER   1   ROW    14   COL     9   RATE    0.287936    



 STREAM LISTING     PERIOD      7   STEP        5

 LAYER ROW COL. STREAM  RCH.  FLOW INTO     FLOW TO   FLOW OUT OF   OVRLND.     DIRECT     STREAM       STREAM     STREAM     STREAM   STREAMBED  STREAMBED
                SEG.NO.  NO.  STRM. RCH.    AQUIFER    STRM. RCH.    RUNOFF     PRECIP       ET          HEAD       DEPTH      WIDTH   CONDCTNC.   GRADIENT

   1    1    1     1     1    3.1125E+01  2.7165E-01   3.0853E+01  0.000E+00  0.000E+00  0.000E+00  1.09431E+03  1.259E+00  1.417E+01  6.378E-02  1.420E+00
   1    2    2     1     2    3.0853E+01  4.2045E-01   3.0433E+01  0.000E+00  0.000E+00  0.000E+00  1.08931E+03  1.256E+00  1.411E+01  9.879E-02  1.419E+00
   1    3    3     1     3    3.0433E+01  3.5834E-01   3.0075E+01  0.000E+00  0.000E+00  0.000E+00  1.08367E+03  1.252E+00  1.404E+01  8.427E-02  1.417E+00
   1    3    4     1     4    3.0075E+01  3.2976E-01   2.9745E+01  0.000E+00  0.000E+00  0.000E+00  1.07866E+03  1.249E+00  1.398E+01  7.761E-02  1.416E+00
   1    4    5     2     1    2.7745E+01  3.3390E-01   2.7411E+01  0.000E+00  0.000E+00  0.000E+00  1.07321E+03  1.281E+00  1.200E+01  7.800E-02  1.427E+00
   1    5    6     2     2    2.7411E+01  2.5635E-01   2.7155E+01  0.000E+00  0.000E+00  0.000E+00  1.06778E+03  1.273E+00  1.200E+01  6.000E-02  1.424E+00
   1    6    6     2     3    2.7155E+01  2.5592E-01   2.6899E+01  0.000E+00  0.000E+00  0.000E+00  1.06306E+03  1.265E+00  1.200E+01  6.000E-02  1.422E+00
   1    7    6     2     4    2.6899E+01  2.5549E-01   2.6643E+01  0.000E+00  0.000E+00  0.000E+00  1.05833E+03  1.258E+00  1.200E+01  6.000E-02  1.419E+00
   1    8    6     2     5    2.6643E+01  2.5506E-01   2.6388E+01  0.000E+00  0.000E+00  0.000E+00  1.05361E+03  1.251E+00  1.200E+01  6.000E-02  1.417E+00
   1    3    5     3     1    2.0000E+00  2.8252E-01   1.7175E+00  0.000E+00  0.000E+00  0.000E+00  1.07555E+03  1.909E+00  9.636E+00  7.227E-02  1.955E+00
   1    3    6     3     2    1.7175E+00  2.4905E-01   1.4684E+00  0.000E+00  0.000E+00  0.000E+00  1.07264E+03  1.727E+00  8.909E+00  6.682E-02  1.864E+00
   1    3    7     3     3    1.4684E+00  1.9718E-01   1.2712E+00  0.000E+00  0.000E+00  0.000E+00  1.06987E+03  1.555E+00  8.218E+00  5.547E-02  1.777E+00
   1    4    8     3     4    1.2712E+00  2.2567E-01   1.0456E+00  0.000E+00  0.000E+00  0.000E+00  1.06682E+03  1.364E+00  7.455E+00  6.709E-02  1.682E+00
   1    5    8     3     5    1.0456E+00  1.5790E-01   8.8768E-01  0.000E+00  0.000E+00  0.000E+00  1.06362E+03  1.164E+00  6.655E+00  4.991E-02  1.582E+00
   1    6    8     3     6    8.8768E-01  5.5980E-02   8.3170E-01  0.000E+00  0.000E+00  0.000E+00  1.06158E+03  1.036E+00  6.145E+00  1.844E-02  1.518E+00
   1    5   10     4     1    1.0000E+01  9.0919E-02   9.9091E+00  0.000E+00  0.000E+00  0.000E+00  1.07836E+03  6.368E-01  1.000E+01  2.500E-02  1.212E+00
   1    5    9     4     2    9.9091E+00  1.8158E-01   9.7275E+00  0.000E+00  0.000E+00  0.000E+00  1.07154E+03  6.315E-01  1.000E+01  5.000E-02  1.211E+00
   1    6    8     4     3    9.7275E+00  1.2689E-01   9.6006E+00  0.000E+00  0.000E+00  0.000E+00  1.06381E+03  6.256E-01  1.000E+01  3.500E-02  1.209E+00
   1    6    8     5     1    1.0432E+01  2.2686E-01   1.0205E+01  0.000E+00  0.000E+00  0.000E+00  1.05868E+03  6.790E-01  1.542E+01  6.166E-02  1.226E+00
   1    7    7     5     2    1.0205E+01  2.7894E-01   9.9265E+00  0.000E+00  0.000E+00  0.000E+00  1.05417E+03  6.732E-01  1.519E+01  7.594E-02  1.224E+00
   1    8    7     5     3    9.9265E+00  1.9221E-01   9.7343E+00  0.000E+00  0.000E+00  0.000E+00  1.04992E+03  6.676E-01  1.497E+01  5.241E-02  1.223E+00
   1    8    6     5     4    9.7343E+00  1.3577E-01   9.5985E+00  0.000E+00  0.000E+00  0.000E+00  1.04691E+03  6.637E-01  1.482E+01  3.706E-02  1.221E+00
   1    9    6     6     1    1.3517E+01  2.3040E-01   1.3286E+01  0.000E+00  0.000E+00  0.000E+00  1.04357E+03  8.400E-01  1.200E+01  6.000E-02  1.280E+00
   1   10    7     6     2    1.3286E+01  2.2988E-01   1.3056E+01  0.000E+00  0.000E+00  0.000E+00  1.03901E+03  8.313E-01  1.200E+01  6.000E-02  1.277E+00
   1   11    7     6     3    1.3056E+01  2.2935E-01   1.2827E+01  0.000E+00  0.000E+00  0.000E+00  1.03446E+03  8.226E-01  1.200E+01  6.000E-02  1.274E+00
   1   12    7     6     4    1.2827E+01  2.2883E-01   1.2598E+01  0.000E+00  0.000E+00  0.000E+00  1.02990E+03  8.138E-01  1.200E+01  6.000E-02  1.271E+00
   1   13    7     6     5    1.2598E+01 -2.8379E-02   1.2627E+01  0.000E+00  0.000E+00  0.000E+00  1.02672E+03  8.099E-01  1.200E+01  2.400E-01 -3.941E-02
   1   14    9     7     1    1.5000E+02  1.3678E+00   1.4863E+02  0.000E+00  0.000E+00  0.000E+00  1.03987E+03  2.288E+00  5.529E+01  5.593E-01  8.152E-01
   1   13    8     7     2    1.4863E+02  1.9173E+00   1.4671E+02  0.000E+00  0.000E+00  0.000E+00  1.03478E+03  2.279E+00  5.526E+01  6.148E-01  1.040E+00
   1   13    7     7     3    1.4671E+02  1.5924E+00   1.4512E+02  0.000E+00  0.000E+00  0.000E+00  1.02969E+03  2.270E+00  5.521E+01  5.584E-01  9.505E-01
   1   13    6     8     1    1.5775E+02  9.6124E-01   1.5679E+02  0.000E+00  0.000E+00  0.000E+00  1.02474E+03  2.867E+00  4.158E+01  4.237E-01  7.563E-01
   1   13    5     8     2    1.5679E+02  2.1624E-01   1.5657E+02  0.000E+00  0.000E+00  0.000E+00  1.01849E+03  2.863E+00  4.152E+01  4.231E-01  1.704E-01
   1   13    4     8     3    1.5657E+02 -2.2928E+00   1.5886E+02  0.000E+00  0.000E+00  0.000E+00  1.01225E+03  2.870E+00  4.162E+01  4.241E+00 -1.802E-01
   1   13    3     8     4    1.5886E+02 -3.5653E+00   1.6243E+02  0.000E+00  0.000E+00  0.000E+00  1.00602E+03  2.890E+00  4.191E+01  4.271E+00 -2.783E-01
   1   13    2     8     5    1.6243E+02 -2.5516E+00   1.6498E+02  0.000E+00  0.000E+00  0.000E+00  9.99786E+02  2.911E+00  4.221E+01  4.301E+00 -1.978E-01
   1   13    1     8     6    1.6498E+02 -1.9758E+00   1.6696E+02  0.000E+00  0.000E+00  0.000E+00  9.94801E+02  2.926E+00  4.242E+01  2.594E+00 -2.539E-01
   1    8    6     9     1    2.2470E+01  0.0000E+00   2.2470E+01  0.000E+00  0.000E+00  0.000E+00  1.08243E+03  3.683E+00  4.000E+00  0.000E+00  2.228E+00
   1    8    5     9     2    2.2470E+01  0.0000E+00   2.2470E+01  0.000E+00  0.000E+00  0.000E+00  1.08193E+03  3.683E+00  4.000E+00  0.000E+00  2.228E+00



 UBDSV3 SAVING "           GW ET" ON UNIT  61 AT TIME STEP  5, STRESS PERIOD   7
 UBDSV3 SAVING "    UZF RECHARGE" ON UNIT  61 AT TIME STEP  5, STRESS PERIOD   7
 UBDSV3 SAVING " SURFACE LEAKAGE" ON UNIT  61 AT TIME STEP  5, STRESS PERIOD   7
 UBDSV3 SAVING "       HORT+DUNN" ON UNIT  61 AT TIME STEP  5, STRESS PERIOD   7
 UBDSV3 SAVING "  STORAGE CHANGE" ON UNIT  61 AT TIME STEP  5, STRESS PERIOD   7


UNSATURATED ZONE PACKAGE VOLUMETRIC BUDGET FOR  TIME STEP     5 STRESS PERIOD    7
  ------------------------------------------------------------------------------



     CUMULATIVE VOLUMES      L**3       RATES FOR THIS TIME STEP      L**3/T
     ------------------                 ------------------------

           IN:                                      IN:
           ---                                      ---
        INFILTRATION =   326935454.6902          INFILTRATION =          23.3179

          OUT:                                     OUT:
          ----                                     ----
              UZF ET =    52951636.7679                UZF ET =          23.3175
        UZF RECHARGE =       73224.0000          UZF RECHARGE =       0.0000E+00

            IN - OUT =   273910593.9223              IN - OUT =       4.4489E-04

          STORAGE:                                 STORAGE:
          --------                                 --------
      STORAGE CHANGE =   273912408.3077        STORAGE CHANGE =      -4.1470E-03

 PERCENT DISCREPANCY IS DIFFERENCE BETWEEN IN-OUT MINUS CHANGE IN STORAGE
 DIVIDED BY THE AVERAGE OF IN AND OUT TIMES 100

 PERCENT DISCREPANCY =          -0.00     PERCENT DISCREPANCY =           0.02






 

            AG WELLS      PERIOD    7   STEP   5
 AG WELL      1   LAYER   1   ROW     6   COL     4   RATE     0.00000    
 AG WELL      2   LAYER   1   ROW     6   COL     5   RATE     0.00000    
 AG WELL      3   LAYER   1   ROW     7   COL     4   RATE     0.00000    
 AG WELL      4   LAYER   1   ROW     7   COL     5   RATE     0.00000    
 AG WELL      5   LAYER   1   ROW     8   COL     4   RATE     0.00000    
 AG WELL      6   LAYER   1   ROW     8   COL     5   RATE     0.00000    
 
 

   DIVERSION SEGMENTS     PERIOD    7   STEP   5
 SEGMENT      9   RATE     22.4700    
 
 

        SW IRRIGATION     PERIOD    7   STEP   5
 SEGMENT      9   ROW     6   COL     4   RATE     3.74507    
 SEGMENT      9   ROW     6   COL     5   RATE     3.74507    
 SEGMENT      9   ROW     7   COL     4   RATE     3.74507    
 SEGMENT      9   ROW     7   COL     5   RATE     3.74507    
 SEGMENT      9   ROW     8   COL     4   RATE     3.74507    
 SEGMENT      9   ROW     8   COL     5   RATE     3.74507    
 
 

        GW IRRIGATION     PERIOD    7   STEP   5
 AG WELL      1   ROW     6   COL     4   RATE     0.00000    
 AG WELL      2   ROW     6   COL     5   RATE     0.00000    
 AG WELL      3   ROW     7   COL     4   RATE     0.00000    
 AG WELL      4   ROW     7   COL     5   RATE     0.00000    
 AG WELL      5   ROW     8   COL     4   RATE     0.00000    
 AG WELL      6   ROW     8   COL     5   RATE     0.00000    
 
1
  VOLUMETRIC BUDGET FOR AGRICULTURAL FIELDS AT  END OF TIME STEP    5, STRESS PERIOD   7
  ------------------------------------------------------------------------------

     CUMULATIVE VOLUMES      L**3       RATES FOR THIS TIME STEP      L**3/T
     ------------------                 ------------------------

           IN:                                      IN:
           ---                                      ---
               AG WELLS  =   223804848.0000                 AG WELLS  =           0.0000
      DIVERSION SEGMENTS =    91539792.0000        DIVERSION SEGMENTS =          22.4700
           GW IRRIGATION =           0.0000             GW IRRIGATION =           0.0000
           SW IRRIGATION =           0.0000             SW IRRIGATION =           0.0000
        SYSTEM LOSSES GW =           0.0000          SYSTEM LOSSES GW =           0.0000
        SYSTEM LOSSES SW =           0.0000          SYSTEM LOSSES SW =           0.0000

                TOTAL IN =   315344640.0000                  TOTAL IN =          22.4700

          OUT:                                     OUT:
          ----                                     ----
               AG WELLS  =           0.0000                 AG WELLS  =           0.0000
      DIVERSION SEGMENTS =           0.0000        DIVERSION SEGMENTS =           0.0000
           GW IRRIGATION =   223804848.0000             GW IRRIGATION =           0.0000
           SW IRRIGATION =    91541624.0000             SW IRRIGATION =          22.4704
        SYSTEM LOSSES GW =           0.0000          SYSTEM LOSSES GW =           0.0000
        SYSTEM LOSSES SW =           0.0000          SYSTEM LOSSES SW =           0.0000

               TOTAL OUT =   315346464.0000                 TOTAL OUT =          22.4704

                IN - OUT =       -1824.0000                  IN - OUT =      -4.4823E-04

     PERCENT DISCREPANCY =          -0.00         PERCENT DISCREPANCY =          -0.00



1
  VOLUMETRIC BUDGET FOR ENTIRE MODEL AT END OF TIME STEP    5, STRESS PERIOD   7
  ------------------------------------------------------------------------------

     CUMULATIVE VOLUMES      L**3       RATES FOR THIS TIME STEP      L**3/T
     ------------------                 ------------------------

           IN:                                      IN:
           ---                                      ---
             STORAGE     =   250529584.0000               STORAGE     =          23.0239
       CONSTANT HEAD     =           0.0000         CONSTANT HEAD     =           0.0000
     HEAD DEP BOUNDS     =     3936391.2500       HEAD DEP BOUNDS     =           0.2879
      STREAM LEAKAGE     =   160734944.0000        STREAM LEAKAGE     =          12.1118
        UZF RECHARGE     =       73223.9531          UZF RECHARGE     =           0.0000
               GW ET     =           0.0000                 GW ET     =           0.0000
     SURFACE LEAKAGE     =           0.0000       SURFACE LEAKAGE     =           0.0000
           AG WELLS      =           0.0000             AG WELLS      =           0.0000

                TOTAL IN =   415274112.0000                  TOTAL IN =          35.4236

          OUT:                                     OUT:
          ----                                     ----
             STORAGE     =    46378932.0000               STORAGE     =          24.7222
       CONSTANT HEAD     =           0.0000         CONSTANT HEAD     =           0.0000
     HEAD DEP BOUNDS     =     3940420.0000       HEAD DEP BOUNDS     =           0.2874
      STREAM LEAKAGE     =   141153456.0000        STREAM LEAKAGE     =          10.4139
        UZF RECHARGE     =           0.0000          UZF RECHARGE     =           0.0000
               GW ET     =           0.0000                 GW ET     =           0.0000
     SURFACE LEAKAGE     =           0.0000       SURFACE LEAKAGE     =           0.0000
           AG WELLS      =   223804848.0000             AG WELLS      =           0.0000

               TOTAL OUT =   415277632.0000                 TOTAL OUT =          35.4234

                IN - OUT =       -3520.0000                  IN - OUT =       1.8311E-04

     PERCENT DISCREPANCY =          -0.00         PERCENT DISCREPANCY =           0.00






         TIME SUMMARY AT END OF TIME STEP    5 IN STRESS PERIOD    7
                    SECONDS     MINUTES      HOURS       DAYS        YEARS
                    -----------------------------------------------------------
   TIME STEP LENGTH  87667.      1461.1      24.352      1.0147     2.77799E-03
 STRESS PERIOD TIME 4.38333E+05  7305.6      121.76      5.0733     1.38899E-02
         TOTAL TIME 1.36747E+07 2.27912E+05  3798.5      158.27     0.43333    
1
 
 SOLVING FOR HEAD 
                                                   Max.-Head-Change                         Max.-Flux-Residual
  Residual-Control   Outer-Iter.   Inner-Iter.     Column Row Layer    Maximum-Head-Change  Column Row Layer    Maximum-Flux-Residual          L2-NORM 
          0                 1           2             5    6     1       0.8325102063E-01       5    6    1         0.4513122200E+01      0.1117870337E+02
          0                 2           2             5    6     1      -0.8097945709E-02       5    6    1        -0.4513047310E+00      0.1125616103E+01
          0                 3           2             4    7     1      -0.6936249486E-01       4    7    1        -0.3722753799E+01      0.9148142442E+01
          0                 4           2             4    7     1       0.7260633700E-01       4    7    1         0.4005633338E+01      0.9811056588E+01
          0                 5           2             4    7     1      -0.2889789974E-02       5    8    1        -0.1638984314E+00      0.4014695965E+00
          0                 6           1             4    7     1       0.3565876786E-04       5    8    1         0.2079277209E-02      0.5093801425E-02

    ------------------------------------------------
       NWT REQUIRED            6 OUTER ITERATIONS 
       AND A TOTAL OF         11 INNER ITERATIONS.
    ------------------------------------------------

 NO OUTPUT CONTROL FOR STRESS PERIOD    7   TIME STEP    6
 
 SOLVING FOR HEAD 
                                                   Max.-Head-Change                         Max.-Flux-Residual
  Residual-Control   Outer-Iter.   Inner-Iter.     Column Row Layer    Maximum-Head-Change  Column Row Layer    Maximum-Flux-Residual          L2-NORM 
          0                 1           2             5    6     1       0.7987081746E-01       5    6    1         0.4326667019E+01      0.1081242845E+02
          0                 2           2             5    6     1      -0.7769152542E-02       5    6    1        -0.4326597927E+00      0.1089241982E+01
          0                 3           2             4    7     1      -0.6936202222E-01       4    7    1        -0.3722695422E+01      0.9150017901E+01
          0                 4           2             4    7     1       0.7260637511E-01       4    7    1         0.4005629206E+01      0.9811188129E+01
          0                 5           2             4    7     1      -0.2889791485E-02       5    8    1        -0.1639023310E+00      0.4014749330E+00
          0                 6           1             4    7     1       0.3565878668E-04       5    8    1         0.2079326145E-02      0.5093875049E-02

    ------------------------------------------------
       NWT REQUIRED            6 OUTER ITERATIONS 
       AND A TOTAL OF         11 INNER ITERATIONS.
    ------------------------------------------------

 NO OUTPUT CONTROL FOR STRESS PERIOD    7   TIME STEP    7
 
 SOLVING FOR HEAD 
                                                   Max.-Head-Change                         Max.-Flux-Residual
  Residual-Control   Outer-Iter.   Inner-Iter.     Column Row Layer    Maximum-Head-Change  Column Row Layer    Maximum-Flux-Residual          L2-NORM 
          0                 1           2             5    6     1       0.7668411953E-01       5    6    1         0.4150997503E+01      0.1046657232E+02
          0                 2           2             5    6     1      -0.7459181448E-02       5    6    1        -0.4150933720E+00      0.1054911163E+01
          0                 3           2             4    7     1      -0.6936204024E-01       4    7    1        -0.3722666029E+01      0.9151817223E+01
          0                 4           2             4    7     1       0.7260643094E-01       4    7    1         0.4005626865E+01      0.9811313701E+01
          0                 5           2             4    7     1      -0.2889793701E-02       5    8    1        -0.1639059782E+00      0.4014800293E+00
          0                 6           1             4    7     1       0.3565881379E-04       5    8    1         0.2079371908E-02      0.5093942272E-02

    ------------------------------------------------
       NWT REQUIRED            6 OUTER ITERATIONS 
       AND A TOTAL OF         11 INNER ITERATIONS.
    ------------------------------------------------

 NO OUTPUT CONTROL FOR STRESS PERIOD    7   TIME STEP    8
 
 SOLVING FOR HEAD 
                                                   Max.-Head-Change                         Max.-Flux-Residual
  Residual-Control   Outer-Iter.   Inner-Iter.     Column Row Layer    Maximum-Head-Change  Column Row Layer    Maximum-Flux-Residual          L2-NORM 
          0                 1           2             5    6     1       0.7367783371E-01       5    6    1         0.3985377333E+01      0.1013964798E+02
          0                 2           2             5    6     1      -0.7166758886E-02       5    6    1        -0.3985318416E+00      0.1022475781E+01
          0                 3           2             4    7     1      -0.6936251315E-01       4    7    1        -0.3722663564E+01      0.9153543446E+01
          0                 4           2             4    7     1       0.7260650279E-01       4    7    1         0.4005626172E+01      0.9811433576E+01
          0                 5           2             4    7     1      -0.2889796556E-02       5    8    1        -0.1639093905E+00      0.4014848659E+00
          0                 6           1             4    7     1       0.3565884930E-04       5    8    1         0.2079414741E-02      0.5093986170E-02

    ------------------------------------------------
       NWT REQUIRED            6 OUTER ITERATIONS 
       AND A TOTAL OF         11 INNER ITERATIONS.
    ------------------------------------------------

 NO OUTPUT CONTROL FOR STRESS PERIOD    7   TIME STEP    9
 
 SOLVING FOR HEAD 
                                                   Max.-Head-Change                         Max.-Flux-Residual
  Residual-Control   Outer-Iter.   Inner-Iter.     Column Row Layer    Maximum-Head-Change  Column Row Layer    Maximum-Flux-Residual          L2-NORM 
          0                 1           2             5    6     1       0.7084001562E-01       5    6    1         0.3829135846E+01      0.9830292069E+01
          0                 2           2             5    6     1      -0.6890723054E-02       5    6    1        -0.3829081392E+00      0.9917985217E+00
          0                 3           2             4    7     1      -0.6936341256E-01       4    7    1        -0.3722686353E+01      0.9155202036E+01
          0                 4           2             4    7     1       0.7260659815E-01       4    7    1         0.4005627485E+01      0.9811549252E+01
          0                 5           2             4    7     1      -0.2889800346E-02       5    8    1        -0.1639126048E+00      0.4014895772E+00
          0                 6           1             4    7     1       0.3565889590E-04       5    8    1         0.2079455078E-02      0.5094063438E-02

    ------------------------------------------------
       NWT REQUIRED            6 OUTER ITERATIONS 
       AND A TOTAL OF         11 INNER ITERATIONS.
    ------------------------------------------------

 OUTPUT CONTROL FOR STRESS PERIOD    7   TIME STEP   10
    PRINT BUDGET
    SAVE BUDGET
 UBDSV1 SAVING "         STORAGE" ON UNIT 102 AT TIME STEP 10, STRESS PERIOD   7
 UBDSV2 SAVING "   CONSTANT HEAD" ON UNIT 102 AT TIME STEP 10, STRESS PERIOD   7
 UBDSV1 SAVING "FLOW RIGHT FACE " ON UNIT 102 AT TIME STEP 10, STRESS PERIOD   7
 UBDSV1 SAVING "FLOW FRONT FACE " ON UNIT 102 AT TIME STEP 10, STRESS PERIOD   7

  HEAD DEP BOUNDS   PERIOD    7   STEP    10
 BOUNDARY      1   LAYER   1   ROW    13   COL     1   RATE   -0.287351    
 BOUNDARY      2   LAYER   1   ROW    14   COL     9   RATE    0.287940    



 STREAM LISTING     PERIOD      7   STEP       10

 LAYER ROW COL. STREAM  RCH.  FLOW INTO     FLOW TO   FLOW OUT OF   OVRLND.     DIRECT     STREAM       STREAM     STREAM     STREAM   STREAMBED  STREAMBED
                SEG.NO.  NO.  STRM. RCH.    AQUIFER    STRM. RCH.    RUNOFF     PRECIP       ET          HEAD       DEPTH      WIDTH   CONDCTNC.   GRADIENT

   1    1    1     1     1    3.1125E+01  2.7165E-01   3.0853E+01  0.000E+00  0.000E+00  0.000E+00  1.09431E+03  1.259E+00  1.417E+01  6.378E-02  1.420E+00
   1    2    2     1     2    3.0853E+01  4.2045E-01   3.0433E+01  0.000E+00  0.000E+00  0.000E+00  1.08931E+03  1.256E+00  1.411E+01  9.879E-02  1.419E+00
   1    3    3     1     3    3.0433E+01  3.5834E-01   3.0075E+01  0.000E+00  0.000E+00  0.000E+00  1.08367E+03  1.252E+00  1.404E+01  8.427E-02  1.417E+00
   1    3    4     1     4    3.0075E+01  3.2976E-01   2.9745E+01  0.000E+00  0.000E+00  0.000E+00  1.07866E+03  1.249E+00  1.398E+01  7.761E-02  1.416E+00
   1    4    5     2     1    2.7745E+01  3.3390E-01   2.7411E+01  0.000E+00  0.000E+00  0.000E+00  1.07321E+03  1.281E+00  1.200E+01  7.800E-02  1.427E+00
   1    5    6     2     2    2.7411E+01  2.5635E-01   2.7155E+01  0.000E+00  0.000E+00  0.000E+00  1.06778E+03  1.273E+00  1.200E+01  6.000E-02  1.424E+00
   1    6    6     2     3    2.7155E+01  2.5592E-01   2.6899E+01  0.000E+00  0.000E+00  0.000E+00  1.06306E+03  1.265E+00  1.200E+01  6.000E-02  1.422E+00
   1    7    6     2     4    2.6899E+01  2.5549E-01   2.6643E+01  0.000E+00  0.000E+00  0.000E+00  1.05833E+03  1.258E+00  1.200E+01  6.000E-02  1.419E+00
   1    8    6     2     5    2.6643E+01  2.5506E-01   2.6388E+01  0.000E+00  0.000E+00  0.000E+00  1.05361E+03  1.251E+00  1.200E+01  6.000E-02  1.417E+00
   1    3    5     3     1    2.0000E+00  2.8252E-01   1.7175E+00  0.000E+00  0.000E+00  0.000E+00  1.07555E+03  1.909E+00  9.636E+00  7.227E-02  1.955E+00
   1    3    6     3     2    1.7175E+00  2.4905E-01   1.4684E+00  0.000E+00  0.000E+00  0.000E+00  1.07264E+03  1.727E+00  8.909E+00  6.682E-02  1.864E+00
   1    3    7     3     3    1.4684E+00  1.9718E-01   1.2712E+00  0.000E+00  0.000E+00  0.000E+00  1.06987E+03  1.555E+00  8.218E+00  5.547E-02  1.777E+00
   1    4    8     3     4    1.2712E+00  2.2567E-01   1.0456E+00  0.000E+00  0.000E+00  0.000E+00  1.06682E+03  1.364E+00  7.455E+00  6.709E-02  1.682E+00
   1    5    8     3     5    1.0456E+00  1.5790E-01   8.8768E-01  0.000E+00  0.000E+00  0.000E+00  1.06362E+03  1.164E+00  6.655E+00  4.991E-02  1.582E+00
   1    6    8     3     6    8.8768E-01  5.5980E-02   8.3170E-01  0.000E+00  0.000E+00  0.000E+00  1.06158E+03  1.036E+00  6.145E+00  1.844E-02  1.518E+00
   1    5   10     4     1    1.0000E+01  9.0919E-02   9.9091E+00  0.000E+00  0.000E+00  0.000E+00  1.07836E+03  6.368E-01  1.000E+01  2.500E-02  1.212E+00
   1    5    9     4     2    9.9091E+00  1.8158E-01   9.7275E+00  0.000E+00  0.000E+00  0.000E+00  1.07154E+03  6.315E-01  1.000E+01  5.000E-02  1.211E+00
   1    6    8     4     3    9.7275E+00  1.2689E-01   9.6006E+00  0.000E+00  0.000E+00  0.000E+00  1.06381E+03  6.256E-01  1.000E+01  3.500E-02  1.209E+00
   1    6    8     5     1    1.0432E+01  2.2686E-01   1.0205E+01  0.000E+00  0.000E+00  0.000E+00  1.05868E+03  6.790E-01  1.542E+01  6.166E-02  1.226E+00
   1    7    7     5     2    1.0205E+01  2.7894E-01   9.9265E+00  0.000E+00  0.000E+00  0.000E+00  1.05417E+03  6.732E-01  1.519E+01  7.594E-02  1.224E+00
   1    8    7     5     3    9.9265E+00  1.9221E-01   9.7343E+00  0.000E+00  0.000E+00  0.000E+00  1.04992E+03  6.676E-01  1.497E+01  5.241E-02  1.223E+00
   1    8    6     5     4    9.7343E+00  1.3577E-01   9.5985E+00  0.000E+00  0.000E+00  0.000E+00  1.04691E+03  6.637E-01  1.482E+01  3.706E-02  1.221E+00
   1    9    6     6     1    1.3517E+01  2.3040E-01   1.3286E+01  0.000E+00  0.000E+00  0.000E+00  1.04357E+03  8.400E-01  1.200E+01  6.000E-02  1.280E+00
   1   10    7     6     2    1.3286E+01  2.2988E-01   1.3056E+01  0.000E+00  0.000E+00  0.000E+00  1.03901E+03  8.313E-01  1.200E+01  6.000E-02  1.277E+00
   1   11    7     6     3    1.3056E+01  2.2935E-01   1.2827E+01  0.000E+00  0.000E+00  0.000E+00  1.03446E+03  8.226E-01  1.200E+01  6.000E-02  1.274E+00
   1   12    7     6     4    1.2827E+01  2.2883E-01   1.2598E+01  0.000E+00  0.000E+00  0.000E+00  1.02990E+03  8.138E-01  1.200E+01  6.000E-02  1.271E+00
   1   13    7     6     5    1.2598E+01 -2.8534E-02   1.2627E+01  0.000E+00  0.000E+00  0.000E+00  1.02672E+03  8.099E-01  1.200E+01  2.400E-01 -3.963E-02
   1   14    9     7     1    1.5000E+02  1.3679E+00   1.4863E+02  0.000E+00  0.000E+00  0.000E+00  1.03987E+03  2.288E+00  5.529E+01  5.593E-01  8.152E-01
   1   13    8     7     2    1.4863E+02  1.9175E+00   1.4671E+02  0.000E+00  0.000E+00  0.000E+00  1.03478E+03  2.279E+00  5.526E+01  6.148E-01  1.040E+00
   1   13    7     7     3    1.4671E+02  1.5920E+00   1.4512E+02  0.000E+00  0.000E+00  0.000E+00  1.02969E+03  2.270E+00  5.521E+01  5.584E-01  9.503E-01
   1   13    6     8     1    1.5775E+02  9.6176E-01   1.5679E+02  0.000E+00  0.000E+00  0.000E+00  1.02474E+03  2.867E+00  4.158E+01  4.237E-01  7.567E-01
   1   13    5     8     2    1.5679E+02  2.1685E-01   1.5657E+02  0.000E+00  0.000E+00  0.000E+00  1.01849E+03  2.863E+00  4.152E+01  4.231E-01  1.709E-01
   1   13    4     8     3    1.5657E+02 -2.2915E+00   1.5886E+02  0.000E+00  0.000E+00  0.000E+00  1.01225E+03  2.870E+00  4.162E+01  4.241E+00 -1.801E-01
   1   13    3     8     4    1.5886E+02 -3.5656E+00   1.6243E+02  0.000E+00  0.000E+00  0.000E+00  1.00602E+03  2.890E+00  4.191E+01  4.271E+00 -2.783E-01
   1   13    2     8     5    1.6243E+02 -2.5523E+00   1.6498E+02  0.000E+00  0.000E+00  0.000E+00  9.99786E+02  2.911E+00  4.221E+01  4.301E+00 -1.978E-01
   1   13    1     8     6    1.6498E+02 -1.9742E+00   1.6695E+02  0.000E+00  0.000E+00  0.000E+00  9.94801E+02  2.926E+00  4.242E+01  2.594E+00 -2.537E-01
   1    8    6     9     1    2.2470E+01  0.0000E+00   2.2470E+01  0.000E+00  0.000E+00  0.000E+00  1.08243E+03  3.683E+00  4.000E+00  0.000E+00  2.228E+00
   1    8    5     9     2    2.2470E+01  0.0000E+00   2.2470E+01  0.000E+00  0.000E+00  0.000E+00  1.08193E+03  3.683E+00  4.000E+00  0.000E+00  2.228E+00



 UBDSV3 SAVING "           GW ET" ON UNIT  61 AT TIME STEP 10, STRESS PERIOD   7
 UBDSV3 SAVING "    UZF RECHARGE" ON UNIT  61 AT TIME STEP 10, STRESS PERIOD   7
 UBDSV3 SAVING " SURFACE LEAKAGE" ON UNIT  61 AT TIME STEP 10, STRESS PERIOD   7
 UBDSV3 SAVING "       HORT+DUNN" ON UNIT  61 AT TIME STEP 10, STRESS PERIOD   7
 UBDSV3 SAVING "  STORAGE CHANGE" ON UNIT  61 AT TIME STEP 10, STRESS PERIOD   7


UNSATURATED ZONE PACKAGE VOLUMETRIC BUDGET FOR  TIME STEP    10 STRESS PERIOD    7
  ------------------------------------------------------------------------------



     CUMULATIVE VOLUMES      L**3       RATES FOR THIS TIME STEP      L**3/T
     ------------------                 ------------------------

           IN:                                      IN:
           ---                                      ---
        INFILTRATION =   337156485.4821          INFILTRATION =          23.3179

          OUT:                                     OUT:
          ----                                     ----
              UZF ET =    63172474.2473                UZF ET =          23.3175
        UZF RECHARGE =       73224.0000          UZF RECHARGE =       0.0000E+00

            IN - OUT =   273910787.2348              IN - OUT =       4.3917E-04

          STORAGE:                                 STORAGE:
          --------                                 --------
      STORAGE CHANGE =   273910880.7689        STORAGE CHANGE =      -8.2352E-04

 PERCENT DISCREPANCY IS DIFFERENCE BETWEEN IN-OUT MINUS CHANGE IN STORAGE
 DIVIDED BY THE AVERAGE OF IN AND OUT TIMES 100

 PERCENT DISCREPANCY =          -0.00     PERCENT DISCREPANCY =           0.01






 

            AG WELLS      PERIOD    7   STEP  10
 AG WELL      1   LAYER   1   ROW     6   COL     4   RATE     0.00000    
 AG WELL      2   LAYER   1   ROW     6   COL     5   RATE     0.00000    
 AG WELL      3   LAYER   1   ROW     7   COL     4   RATE     0.00000    
 AG WELL      4   LAYER   1   ROW     7   COL     5   RATE     0.00000    
 AG WELL      5   LAYER   1   ROW     8   COL     4   RATE     0.00000    
 AG WELL      6   LAYER   1   ROW     8   COL     5   RATE     0.00000    
 
 

   DIVERSION SEGMENTS     PERIOD    7   STEP  10
 SEGMENT      9   RATE     22.4700    
 
 

        SW IRRIGATION     PERIOD    7   STEP  10
 SEGMENT      9   ROW     6   COL     4   RATE     3.74507    
 SEGMENT      9   ROW     6   COL     5   RATE     3.74507    
 SEGMENT      9   ROW     7   COL     4   RATE     3.74507    
 SEGMENT      9   ROW     7   COL     5   RATE     3.74507    
 SEGMENT      9   ROW     8   COL     4   RATE     3.74507    
 SEGMENT      9   ROW     8   COL     5   RATE     3.74507    
 
 

        GW IRRIGATION     PERIOD    7   STEP  10
 AG WELL      1   ROW     6   COL     4   RATE     0.00000    
 AG WELL      2   ROW     6   COL     5   RATE     0.00000    
 AG WELL      3   ROW     7   COL     4   RATE     0.00000    
 AG WELL      4   ROW     7   COL     5   RATE     0.00000    
 AG WELL      5   ROW     8   COL     4   RATE     0.00000    
 AG WELL      6   ROW     8   COL     5   RATE     0.00000    
 
1
  VOLUMETRIC BUDGET FOR AGRICULTURAL FIELDS AT  END OF TIME STEP   10, STRESS PERIOD   7
  ------------------------------------------------------------------------------

     CUMULATIVE VOLUMES      L**3       RATES FOR THIS TIME STEP      L**3/T
     ------------------                 ------------------------

           IN:                                      IN:
           ---                                      ---
               AG WELLS  =   223804848.0000                 AG WELLS  =           0.0000
      DIVERSION SEGMENTS =   101389152.0000        DIVERSION SEGMENTS =          22.4700
           GW IRRIGATION =           0.0000             GW IRRIGATION =           0.0000
           SW IRRIGATION =           0.0000             SW IRRIGATION =           0.0000
        SYSTEM LOSSES GW =           0.0000          SYSTEM LOSSES GW =           0.0000
        SYSTEM LOSSES SW =           0.0000          SYSTEM LOSSES SW =           0.0000

                TOTAL IN =   325193984.0000                  TOTAL IN =          22.4700

          OUT:                                     OUT:
          ----                                     ----
               AG WELLS  =           0.0000                 AG WELLS  =           0.0000
      DIVERSION SEGMENTS =           0.0000        DIVERSION SEGMENTS =           0.0000
           GW IRRIGATION =   223804848.0000             GW IRRIGATION =           0.0000
           SW IRRIGATION =   101391184.0000             SW IRRIGATION =          22.4704
        SYSTEM LOSSES GW =           0.0000          SYSTEM LOSSES GW =           0.0000
        SYSTEM LOSSES SW =           0.0000          SYSTEM LOSSES SW =           0.0000

               TOTAL OUT =   325196032.0000                 TOTAL OUT =          22.4704

                IN - OUT =       -2048.0000                  IN - OUT =      -4.4823E-04

     PERCENT DISCREPANCY =          -0.00         PERCENT DISCREPANCY =          -0.00



1
  VOLUMETRIC BUDGET FOR ENTIRE MODEL AT END OF TIME STEP   10, STRESS PERIOD   7
  ------------------------------------------------------------------------------

     CUMULATIVE VOLUMES      L**3       RATES FOR THIS TIME STEP      L**3/T
     ------------------                 ------------------------

           IN:                                      IN:
           ---                                      ---
             STORAGE     =   259789216.0000               STORAGE     =          19.9456
       CONSTANT HEAD     =           0.0000         CONSTANT HEAD     =           0.0000
     HEAD DEP BOUNDS     =     4062604.2500       HEAD DEP BOUNDS     =           0.2879
      STREAM LEAKAGE     =   166044224.0000        STREAM LEAKAGE     =          12.1128
        UZF RECHARGE     =       73223.9531          UZF RECHARGE     =           0.0000
               GW ET     =           0.0000                 GW ET     =           0.0000
     SURFACE LEAKAGE     =           0.0000       SURFACE LEAKAGE     =           0.0000
           AG WELLS      =           0.0000             AG WELLS      =           0.0000

                TOTAL IN =   429969280.0000                  TOTAL IN =          32.3463

          OUT:                                     OUT:
          ----                                     ----
             STORAGE     =    56383696.0000               STORAGE     =          21.6466
       CONSTANT HEAD     =           0.0000         CONSTANT HEAD     =           0.0000
     HEAD DEP BOUNDS     =     4066379.2500       HEAD DEP BOUNDS     =           0.2874
      STREAM LEAKAGE     =   145717776.0000        STREAM LEAKAGE     =          10.4121
        UZF RECHARGE     =           0.0000          UZF RECHARGE     =           0.0000
               GW ET     =           0.0000                 GW ET     =           0.0000
     SURFACE LEAKAGE     =           0.0000       SURFACE LEAKAGE     =           0.0000
           AG WELLS      =   223804848.0000             AG WELLS      =           0.0000

               TOTAL OUT =   429972704.0000                 TOTAL OUT =          32.3461

                IN - OUT =       -3424.0000                  IN - OUT =       1.8311E-04

     PERCENT DISCREPANCY =          -0.00         PERCENT DISCREPANCY =           0.00






         TIME SUMMARY AT END OF TIME STEP   10 IN STRESS PERIOD    7
                    SECONDS     MINUTES      HOURS       DAYS        YEARS
                    -----------------------------------------------------------
   TIME STEP LENGTH  87667.      1461.1      24.352      1.0147     2.77799E-03
 STRESS PERIOD TIME 8.76667E+05  14611.      243.52      10.147     2.77799E-02
         TOTAL TIME 1.41131E+07 2.35218E+05  3920.3      163.35     0.44722    
1
 
 SOLVING FOR HEAD 
                                                   Max.-Head-Change                         Max.-Flux-Residual
  Residual-Control   Outer-Iter.   Inner-Iter.     Column Row Layer    Maximum-Head-Change  Column Row Layer    Maximum-Flux-Residual          L2-NORM 
          0                 1           2             5    6     1       0.6815977683E-01       5    6    1         0.3681661943E+01      0.9537271350E+01
          0                 2           2             5    6     1      -0.6630014853E-02       5    6    1        -0.3681611584E+00      0.9627560865E+00
          0                 3           2             4    7     1      -0.6936470595E-01       4    7    1        -0.3722732520E+01      0.9156796917E+01
          0                 4           2             4    7     1       0.7260671547E-01       4    7    1         0.4005630674E+01      0.9811661002E+01
          0                 5           2             4    7     1      -0.2889805011E-02       5    8    1        -0.1639156361E+00      0.4014941098E+00
          0                 6           1             4    7     1       0.3565895359E-04       5    8    1         0.2079493146E-02      0.5094120232E-02

    ------------------------------------------------
       NWT REQUIRED            6 OUTER ITERATIONS 
       AND A TOTAL OF         11 INNER ITERATIONS.
    ------------------------------------------------

 NO OUTPUT CONTROL FOR STRESS PERIOD    7   TIME STEP   11
 
 SOLVING FOR HEAD 
                                                   Max.-Head-Change                         Max.-Flux-Residual
  Residual-Control   Outer-Iter.   Inner-Iter.     Column Row Layer    Maximum-Head-Change  Column Row Layer    Maximum-Flux-Residual          L2-NORM 
          0                 1           2             5    7     1       0.6563317214E-01       5    6    1         0.3542358310E+01      0.9259437824E+01
          0                 2           2             5    7     1      -0.6384281915E-02       5    6    1        -0.3542311709E+00      0.9352336674E+00
          0                 3           2             4    7     1      -0.6936635289E-01       4    7    1        -0.3722799767E+01      0.9158329302E+01
          0                 4           2             4    7     1       0.7260684400E-01       4    7    1         0.4005635100E+01      0.9811767782E+01
          0                 5           2             4    7     1      -0.2889810122E-02       5    8    1        -0.1639184767E+00      0.4014984406E+00
          0                 6           1             4    7     1       0.3565901654E-04       5    8    1         0.2079528801E-02      0.5094174626E-02

    ------------------------------------------------
       NWT REQUIRED            6 OUTER ITERATIONS 
       AND A TOTAL OF         11 INNER ITERATIONS.
    ------------------------------------------------

 NO OUTPUT CONTROL FOR STRESS PERIOD    7   TIME STEP   12
 
 SOLVING FOR HEAD 
                                                   Max.-Head-Change                         Max.-Flux-Residual
  Residual-Control   Outer-Iter.   Inner-Iter.     Column Row Layer    Maximum-Head-Change  Column Row Layer    Maximum-Flux-Residual          L2-NORM 
          0                 1           2             5    7     1       0.6422764350E-01       5    7    1         0.3411019696E+01      0.8995729648E+01
          0                 2           2             5    7     1      -0.6247569290E-02       5    7    1        -0.3411000483E+00      0.9091252386E+00
          0                 3           2             4    7     1      -0.6936832289E-01       4    7    1        -0.3722886325E+01      0.9159802707E+01
          0                 4           2             4    7     1       0.7260698231E-01       4    7    1         0.4005640641E+01      0.9811869830E+01
          0                 5           2             4    7     1      -0.2889815623E-02       5    8    1        -0.1639211398E+00      0.4015025845E+00
          0                 6           1             4    7     1       0.3565908442E-04       5    8    1         0.2079562220E-02      0.5094227760E-02

    ------------------------------------------------
       NWT REQUIRED            6 OUTER ITERATIONS 
       AND A TOTAL OF         11 INNER ITERATIONS.
    ------------------------------------------------

 NO OUTPUT CONTROL FOR STRESS PERIOD    7   TIME STEP   13
 
 SOLVING FOR HEAD 
                                                   Max.-Head-Change                         Max.-Flux-Residual
  Residual-Control   Outer-Iter.   Inner-Iter.     Column Row Layer    Maximum-Head-Change  Column Row Layer    Maximum-Flux-Residual          L2-NORM 
          0                 1           2             5    7     1       0.6285210829E-01       5    7    1         0.3337981186E+01      0.8745189921E+01
          0                 2           2             5    7     1      -0.6113773351E-02       5    7    1        -0.3337966128E+00      0.8843348648E+00
          0                 3           2             4    7     1      -0.6937059788E-01       4    7    1        -0.3722991114E+01      0.9161220935E+01
          0                 4           2             4    7     1       0.7260713837E-01       5    8    1         0.4005659154E+01      0.9811968579E+01
          0                 5           2             4    7     1      -0.2889821830E-02       5    8    1        -0.1639236575E+00      0.4015065821E+00
          0                 6           1             4    7     1       0.3565916104E-04       5    8    1         0.2079593818E-02      0.5094288464E-02

    ------------------------------------------------
       NWT REQUIRED            6 OUTER ITERATIONS 
       AND A TOTAL OF         11 INNER ITERATIONS.
    ------------------------------------------------

 NO OUTPUT CONTROL FOR STRESS PERIOD    7   TIME STEP   14
 
 SOLVING FOR HEAD 
                                                   Max.-Head-Change                         Max.-Flux-Residual
  Residual-Control   Outer-Iter.   Inner-Iter.     Column Row Layer    Maximum-Head-Change  Column Row Layer    Maximum-Flux-Residual          L2-NORM 
          0                 1           2             5    7     1       0.6150680785E-01       5    7    1         0.3266489627E+01      0.8506924143E+01
          0                 2           2             5    7     1      -0.5982917670E-02       5    7    1        -0.3266478205E+00      0.8607728916E+00
          0                 3           2             4    7     1      -0.6937315082E-01       5    8    1        -0.3723262440E+01      0.9162587127E+01
          0                 4           2             4    7     1       0.7260731089E-01       5    8    1         0.4005718017E+01      0.9812064246E+01
          0                 5           2             4    7     1      -0.2889828693E-02       5    8    1        -0.1639260407E+00      0.4015104689E+00
          0                 6           1             4    7     1       0.3565924561E-04       5    8    1         0.2079623742E-02      0.5094317205E-02

    ------------------------------------------------
       NWT REQUIRED            6 OUTER ITERATIONS 
       AND A TOTAL OF         11 INNER ITERATIONS.
    ------------------------------------------------

 OUTPUT CONTROL FOR STRESS PERIOD    7   TIME STEP   15
    PRINT BUDGET
    SAVE BUDGET
 UBDSV1 SAVING "         STORAGE" ON UNIT 102 AT TIME STEP 15, STRESS PERIOD   7
 UBDSV2 SAVING "   CONSTANT HEAD" ON UNIT 102 AT TIME STEP 15, STRESS PERIOD   7
 UBDSV1 SAVING "FLOW RIGHT FACE " ON UNIT 102 AT TIME STEP 15, STRESS PERIOD   7
 UBDSV1 SAVING "FLOW FRONT FACE " ON UNIT 102 AT TIME STEP 15, STRESS PERIOD   7

  HEAD DEP BOUNDS   PERIOD    7   STEP    15
 BOUNDARY      1   LAYER   1   ROW    13   COL     1   RATE   -0.287333    
 BOUNDARY      2   LAYER   1   ROW    14   COL     9   RATE    0.287943    



 STREAM LISTING     PERIOD      7   STEP       15

 LAYER ROW COL. STREAM  RCH.  FLOW INTO     FLOW TO   FLOW OUT OF   OVRLND.     DIRECT     STREAM       STREAM     STREAM     STREAM   STREAMBED  STREAMBED
                SEG.NO.  NO.  STRM. RCH.    AQUIFER    STRM. RCH.    RUNOFF     PRECIP       ET          HEAD       DEPTH      WIDTH   CONDCTNC.   GRADIENT

   1    1    1     1     1    3.1125E+01  2.7165E-01   3.0853E+01  0.000E+00  0.000E+00  0.000E+00  1.09431E+03  1.259E+00  1.417E+01  6.378E-02  1.420E+00
   1    2    2     1     2    3.0853E+01  4.2045E-01   3.0433E+01  0.000E+00  0.000E+00  0.000E+00  1.08931E+03  1.256E+00  1.411E+01  9.879E-02  1.419E+00
   1    3    3     1     3    3.0433E+01  3.5834E-01   3.0075E+01  0.000E+00  0.000E+00  0.000E+00  1.08367E+03  1.252E+00  1.404E+01  8.427E-02  1.417E+00
   1    3    4     1     4    3.0075E+01  3.2976E-01   2.9745E+01  0.000E+00  0.000E+00  0.000E+00  1.07866E+03  1.249E+00  1.398E+01  7.761E-02  1.416E+00
   1    4    5     2     1    2.7745E+01  3.3390E-01   2.7411E+01  0.000E+00  0.000E+00  0.000E+00  1.07321E+03  1.281E+00  1.200E+01  7.800E-02  1.427E+00
   1    5    6     2     2    2.7411E+01  2.5635E-01   2.7155E+01  0.000E+00  0.000E+00  0.000E+00  1.06778E+03  1.273E+00  1.200E+01  6.000E-02  1.424E+00
   1    6    6     2     3    2.7155E+01  2.5592E-01   2.6899E+01  0.000E+00  0.000E+00  0.000E+00  1.06306E+03  1.265E+00  1.200E+01  6.000E-02  1.422E+00
   1    7    6     2     4    2.6899E+01  2.5549E-01   2.6643E+01  0.000E+00  0.000E+00  0.000E+00  1.05833E+03  1.258E+00  1.200E+01  6.000E-02  1.419E+00
   1    8    6     2     5    2.6643E+01  2.5506E-01   2.6388E+01  0.000E+00  0.000E+00  0.000E+00  1.05361E+03  1.251E+00  1.200E+01  6.000E-02  1.417E+00
   1    3    5     3     1    2.0000E+00  2.8252E-01   1.7175E+00  0.000E+00  0.000E+00  0.000E+00  1.07555E+03  1.909E+00  9.636E+00  7.227E-02  1.955E+00
   1    3    6     3     2    1.7175E+00  2.4905E-01   1.4684E+00  0.000E+00  0.000E+00  0.000E+00  1.07264E+03  1.727E+00  8.909E+00  6.682E-02  1.864E+00
   1    3    7     3     3    1.4684E+00  1.9718E-01   1.2712E+00  0.000E+00  0.000E+00  0.000E+00  1.06987E+03  1.555E+00  8.218E+00  5.547E-02  1.777E+00
   1    4    8     3     4    1.2712E+00  2.2567E-01   1.0456E+00  0.000E+00  0.000E+00  0.000E+00  1.06682E+03  1.364E+00  7.455E+00  6.709E-02  1.682E+00
   1    5    8     3     5    1.0456E+00  1.5790E-01   8.8768E-01  0.000E+00  0.000E+00  0.000E+00  1.06362E+03  1.164E+00  6.655E+00  4.991E-02  1.582E+00
   1    6    8     3     6    8.8768E-01  5.5980E-02   8.3170E-01  0.000E+00  0.000E+00  0.000E+00  1.06158E+03  1.036E+00  6.145E+00  1.844E-02  1.518E+00
   1    5   10     4     1    1.0000E+01  9.0919E-02   9.9091E+00  0.000E+00  0.000E+00  0.000E+00  1.07836E+03  6.368E-01  1.000E+01  2.500E-02  1.212E+00
   1    5    9     4     2    9.9091E+00  1.8158E-01   9.7275E+00  0.000E+00  0.000E+00  0.000E+00  1.07154E+03  6.315E-01  1.000E+01  5.000E-02  1.211E+00
   1    6    8     4     3    9.7275E+00  1.2689E-01   9.6006E+00  0.000E+00  0.000E+00  0.000E+00  1.06381E+03  6.256E-01  1.000E+01  3.500E-02  1.209E+00
   1    6    8     5     1    1.0432E+01  2.2686E-01   1.0205E+01  0.000E+00  0.000E+00  0.000E+00  1.05868E+03  6.790E-01  1.542E+01  6.166E-02  1.226E+00
   1    7    7     5     2    1.0205E+01  2.7894E-01   9.9265E+00  0.000E+00  0.000E+00  0.000E+00  1.05417E+03  6.732E-01  1.519E+01  7.594E-02  1.224E+00
   1    8    7     5     3    9.9265E+00  1.9221E-01   9.7343E+00  0.000E+00  0.000E+00  0.000E+00  1.04992E+03  6.676E-01  1.497E+01  5.241E-02  1.223E+00
   1    8    6     5     4    9.7343E+00  1.3577E-01   9.5985E+00  0.000E+00  0.000E+00  0.000E+00  1.04691E+03  6.637E-01  1.482E+01  3.706E-02  1.221E+00
   1    9    6     6     1    1.3517E+01  2.3040E-01   1.3286E+01  0.000E+00  0.000E+00  0.000E+00  1.04357E+03  8.400E-01  1.200E+01  6.000E-02  1.280E+00
   1   10    7     6     2    1.3286E+01  2.2988E-01   1.3056E+01  0.000E+00  0.000E+00  0.000E+00  1.03901E+03  8.313E-01  1.200E+01  6.000E-02  1.277E+00
   1   11    7     6     3    1.3056E+01  2.2935E-01   1.2827E+01  0.000E+00  0.000E+00  0.000E+00  1.03446E+03  8.226E-01  1.200E+01  6.000E-02  1.274E+00
   1   12    7     6     4    1.2827E+01  2.2883E-01   1.2598E+01  0.000E+00  0.000E+00  0.000E+00  1.02990E+03  8.138E-01  1.200E+01  6.000E-02  1.271E+00
   1   13    7     6     5    1.2598E+01 -2.8637E-02   1.2627E+01  0.000E+00  0.000E+00  0.000E+00  1.02672E+03  8.099E-01  1.200E+01  2.400E-01 -3.977E-02
   1   14    9     7     1    1.5000E+02  1.3679E+00   1.4863E+02  0.000E+00  0.000E+00  0.000E+00  1.03987E+03  2.288E+00  5.529E+01  5.593E-01  8.153E-01
   1   13    8     7     2    1.4863E+02  1.9176E+00   1.4671E+02  0.000E+00  0.000E+00  0.000E+00  1.03478E+03  2.279E+00  5.526E+01  6.148E-01  1.040E+00
   1   13    7     7     3    1.4671E+02  1.5917E+00   1.4512E+02  0.000E+00  0.000E+00  0.000E+00  1.02969E+03  2.270E+00  5.521E+01  5.584E-01  9.502E-01
   1   13    6     8     1    1.5775E+02  9.6224E-01   1.5679E+02  0.000E+00  0.000E+00  0.000E+00  1.02474E+03  2.867E+00  4.158E+01  4.237E-01  7.571E-01
   1   13    5     8     2    1.5679E+02  2.1746E-01   1.5657E+02  0.000E+00  0.000E+00  0.000E+00  1.01849E+03  2.863E+00  4.152E+01  4.231E-01  1.713E-01
   1   13    4     8     3    1.5657E+02 -2.2898E+00   1.5886E+02  0.000E+00  0.000E+00  0.000E+00  1.01225E+03  2.870E+00  4.162E+01  4.241E+00 -1.800E-01
   1   13    3     8     4    1.5886E+02 -3.5654E+00   1.6243E+02  0.000E+00  0.000E+00  0.000E+00  1.00602E+03  2.890E+00  4.191E+01  4.271E+00 -2.783E-01
   1   13    2     8     5    1.6243E+02 -2.5527E+00   1.6498E+02  0.000E+00  0.000E+00  0.000E+00  9.99786E+02  2.911E+00  4.221E+01  4.301E+00 -1.978E-01
   1   13    1     8     6    1.6498E+02 -1.9731E+00   1.6695E+02  0.000E+00  0.000E+00  0.000E+00  9.94801E+02  2.926E+00  4.242E+01  2.594E+00 -2.536E-01
   1    8    6     9     1    2.2470E+01  0.0000E+00   2.2470E+01  0.000E+00  0.000E+00  0.000E+00  1.08243E+03  3.683E+00  4.000E+00  0.000E+00  2.228E+00
   1    8    5     9     2    2.2470E+01  0.0000E+00   2.2470E+01  0.000E+00  0.000E+00  0.000E+00  1.08193E+03  3.683E+00  4.000E+00  0.000E+00  2.228E+00



 UBDSV3 SAVING "           GW ET" ON UNIT  61 AT TIME STEP 15, STRESS PERIOD   7
 UBDSV3 SAVING "    UZF RECHARGE" ON UNIT  61 AT TIME STEP 15, STRESS PERIOD   7
 UBDSV3 SAVING " SURFACE LEAKAGE" ON UNIT  61 AT TIME STEP 15, STRESS PERIOD   7
 UBDSV3 SAVING "       HORT+DUNN" ON UNIT  61 AT TIME STEP 15, STRESS PERIOD   7
 UBDSV3 SAVING "  STORAGE CHANGE" ON UNIT  61 AT TIME STEP 15, STRESS PERIOD   7


UNSATURATED ZONE PACKAGE VOLUMETRIC BUDGET FOR  TIME STEP    15 STRESS PERIOD    7
  ------------------------------------------------------------------------------



     CUMULATIVE VOLUMES      L**3       RATES FOR THIS TIME STEP      L**3/T
     ------------------                 ------------------------

           IN:                                      IN:
           ---                                      ---
        INFILTRATION =   347377513.4615          INFILTRATION =          23.3179

          OUT:                                     OUT:
          ----                                     ----
              UZF ET =    73393311.7267                UZF ET =          23.3175
        UZF RECHARGE =       73224.0000          UZF RECHARGE =       0.0000E+00

            IN - OUT =   273910977.7348              IN - OUT =       4.3201E-04

          STORAGE:                                 STORAGE:
          --------                                 --------
      STORAGE CHANGE =   273911071.5678        STORAGE CHANGE =       4.3272E-04

 PERCENT DISCREPANCY IS DIFFERENCE BETWEEN IN-OUT MINUS CHANGE IN STORAGE
 DIVIDED BY THE AVERAGE OF IN AND OUT TIMES 100

 PERCENT DISCREPANCY =          -0.00     PERCENT DISCREPANCY =           0.00






 

            AG WELLS      PERIOD    7   STEP  15
 AG WELL      1   LAYER   1   ROW     6   COL     4   RATE     0.00000    
 AG WELL      2   LAYER   1   ROW     6   COL     5   RATE     0.00000    
 AG WELL      3   LAYER   1   ROW     7   COL     4   RATE     0.00000    
 AG WELL      4   LAYER   1   ROW     7   COL     5   RATE     0.00000    
 AG WELL      5   LAYER   1   ROW     8   COL     4   RATE     0.00000    
 AG WELL      6   LAYER   1   ROW     8   COL     5   RATE     0.00000    
 
 

   DIVERSION SEGMENTS     PERIOD    7   STEP  15
 SEGMENT      9   RATE     22.4700    
 
 

        SW IRRIGATION     PERIOD    7   STEP  15
 SEGMENT      9   ROW     6   COL     4   RATE     3.74507    
 SEGMENT      9   ROW     6   COL     5   RATE     3.74507    
 SEGMENT      9   ROW     7   COL     4   RATE     3.74507    
 SEGMENT      9   ROW     7   COL     5   RATE     3.74507    
 SEGMENT      9   ROW     8   COL     4   RATE     3.74507    
 SEGMENT      9   ROW     8   COL     5   RATE     3.74507    
 
 

        GW IRRIGATION     PERIOD    7   STEP  15
 AG WELL      1   ROW     6   COL     4   RATE     0.00000    
 AG WELL      2   ROW     6   COL     5   RATE     0.00000    
 AG WELL      3   ROW     7   COL     4   RATE     0.00000    
 AG WELL      4   ROW     7   COL     5   RATE     0.00000    
 AG WELL      5   ROW     8   COL     4   RATE     0.00000    
 AG WELL      6   ROW     8   COL     5   RATE     0.00000    
 
1
  VOLUMETRIC BUDGET FOR AGRICULTURAL FIELDS AT  END OF TIME STEP   15, STRESS PERIOD   7
  ------------------------------------------------------------------------------

     CUMULATIVE VOLUMES      L**3       RATES FOR THIS TIME STEP      L**3/T
     ------------------                 ------------------------

           IN:                                      IN:
           ---                                      ---
               AG WELLS  =   223804848.0000                 AG WELLS  =           0.0000
      DIVERSION SEGMENTS =   111238512.0000        DIVERSION SEGMENTS =          22.4700
           GW IRRIGATION =           0.0000             GW IRRIGATION =           0.0000
           SW IRRIGATION =           0.0000             SW IRRIGATION =           0.0000
        SYSTEM LOSSES GW =           0.0000          SYSTEM LOSSES GW =           0.0000
        SYSTEM LOSSES SW =           0.0000          SYSTEM LOSSES SW =           0.0000

                TOTAL IN =   335043360.0000                  TOTAL IN =          22.4700

          OUT:                                     OUT:
          ----                                     ----
               AG WELLS  =           0.0000                 AG WELLS  =           0.0000
      DIVERSION SEGMENTS =           0.0000        DIVERSION SEGMENTS =           0.0000
           GW IRRIGATION =   223804848.0000             GW IRRIGATION =           0.0000
           SW IRRIGATION =   111240720.0000             SW IRRIGATION =          22.4704
        SYSTEM LOSSES GW =           0.0000          SYSTEM LOSSES GW =           0.0000
        SYSTEM LOSSES SW =           0.0000          SYSTEM LOSSES SW =           0.0000

               TOTAL OUT =   335045568.0000                 TOTAL OUT =          22.4704

                IN - OUT =       -2208.0000                  IN - OUT =      -4.4823E-04

     PERCENT DISCREPANCY =          -0.00         PERCENT DISCREPANCY =          -0.00



1
  VOLUMETRIC BUDGET FOR ENTIRE MODEL AT END OF TIME STEP   15, STRESS PERIOD   7
  ------------------------------------------------------------------------------

     CUMULATIVE VOLUMES      L**3       RATES FOR THIS TIME STEP      L**3/T
     ------------------                 ------------------------

           IN:                                      IN:
           ---                                      ---
             STORAGE     =   267851888.0000               STORAGE     =          17.4237
       CONSTANT HEAD     =           0.0000         CONSTANT HEAD     =           0.0000
     HEAD DEP BOUNDS     =     4188818.7500       HEAD DEP BOUNDS     =           0.2879
      STREAM LEAKAGE     =   171353936.0000        STREAM LEAKAGE     =          12.1138
        UZF RECHARGE     =       73223.9531          UZF RECHARGE     =           0.0000
               GW ET     =           0.0000                 GW ET     =           0.0000
     SURFACE LEAKAGE     =           0.0000       SURFACE LEAKAGE     =           0.0000
           AG WELLS      =           0.0000             AG WELLS      =           0.0000

                TOTAL IN =   443467840.0000                  TOTAL IN =          29.8254

          OUT:                                     OUT:
          ----                                     ----
             STORAGE     =    65192932.0000               STORAGE     =          19.1283
       CONSTANT HEAD     =           0.0000         CONSTANT HEAD     =           0.0000
     HEAD DEP BOUNDS     =     4192329.7500       HEAD DEP BOUNDS     =           0.2873
      STREAM LEAKAGE     =   150281120.0000        STREAM LEAKAGE     =          10.4096
        UZF RECHARGE     =           0.0000          UZF RECHARGE     =           0.0000
               GW ET     =           0.0000                 GW ET     =           0.0000
     SURFACE LEAKAGE     =           0.0000       SURFACE LEAKAGE     =           0.0000
           AG WELLS      =   223804848.0000             AG WELLS      =           0.0000

               TOTAL OUT =   443471232.0000                 TOTAL OUT =          29.8253

                IN - OUT =       -3392.0000                  IN - OUT =       1.8311E-04

     PERCENT DISCREPANCY =          -0.00         PERCENT DISCREPANCY =           0.00






         TIME SUMMARY AT END OF TIME STEP   15 IN STRESS PERIOD    7
                    SECONDS     MINUTES      HOURS       DAYS        YEARS
                    -----------------------------------------------------------
   TIME STEP LENGTH  87667.      1461.1      24.352      1.0147     2.77799E-03
 STRESS PERIOD TIME 1.31500E+06  21917.      365.28      15.220     4.16698E-02
         TOTAL TIME 1.45514E+07 2.42524E+05  4042.1      168.42     0.46111    
1
 
 SOLVING FOR HEAD 
                                                   Max.-Head-Change                         Max.-Flux-Residual
  Residual-Control   Outer-Iter.   Inner-Iter.     Column Row Layer    Maximum-Head-Change  Column Row Layer    Maximum-Flux-Residual          L2-NORM 
          0                 1           2             5    7     1       0.6019211070E-01       5    7    1         0.3196573874E+01      0.8280106210E+01
          0                 2           2             5    7     1      -0.5855038185E-02       5    7    1        -0.3196565630E+00      0.8383570178E+00
          0                 3           2             4    7     1      -0.6937594748E-01       5    8    1        -0.3724060452E+01      0.9163902211E+01
          0                 4           2             4    7     1       0.7260748943E-01       5    8    1         0.4005773289E+01      0.9812155749E+01
          0                 5           2             4    7     1      -0.2889835796E-02       5    8    1        -0.1639282783E+00      0.4015141836E+00
          0                 6           1             4    7     1       0.3565933343E-04       5    8    1         0.2079651832E-02      0.5094368547E-02

    ------------------------------------------------
       NWT REQUIRED            6 OUTER ITERATIONS 
       AND A TOTAL OF         11 INNER ITERATIONS.
    ------------------------------------------------

 NO OUTPUT CONTROL FOR STRESS PERIOD    7   TIME STEP   16
 
 SOLVING FOR HEAD 
                                                   Max.-Head-Change                         Max.-Flux-Residual
  Residual-Control   Outer-Iter.   Inner-Iter.     Column Row Layer    Maximum-Head-Change  Column Row Layer    Maximum-Flux-Residual          L2-NORM 
          0                 1           2             4    7     1       0.5893721459E-01       5    7    1         0.3128244858E+01      0.8063981116E+01
          0                 2           2             4    7     1      -0.5732983689E-02       5    7    1        -0.3128239387E+00      0.8170114074E+00
          0                 3           2             4    7     1      -0.6937896588E-01       5    8    1        -0.3724813465E+01      0.9165169038E+01
          0                 4           2             4    7     1       0.7260767296E-01       5    8    1         0.4005825194E+01      0.9812243259E+01
          0                 5           2             4    7     1      -0.2889843098E-02       5    8    1        -0.1639303797E+00      0.4015177393E+00
          0                 6           1             4    7     1       0.3565942327E-04       5    8    1         0.2079678212E-02      0.5094417260E-02

    ------------------------------------------------
       NWT REQUIRED            6 OUTER ITERATIONS 
       AND A TOTAL OF         11 INNER ITERATIONS.
    ------------------------------------------------

 NO OUTPUT CONTROL FOR STRESS PERIOD    7   TIME STEP   17
 
 SOLVING FOR HEAD 
                                                   Max.-Head-Change                         Max.-Flux-Residual
  Residual-Control   Outer-Iter.   Inner-Iter.     Column Row Layer    Maximum-Head-Change  Column Row Layer    Maximum-Flux-Residual          L2-NORM 
          0                 1           2             4    7     1       0.5845995545E-01       4    7    1         0.3062253623E+01      0.7857865928E+01
          0                 2           2             4    7     1      -0.5686564180E-02       4    7    1        -0.3062257393E+00      0.7966667017E+00
          0                 3           2             4    7     1      -0.6938219610E-01       5    8    1        -0.3725525133E+01      0.9166390762E+01
          0                 4           2             4    7     1       0.7260787425E-01       5    8    1         0.4005874703E+01      0.9812328781E+01
          0                 5           2             4    7     1      -0.2889851106E-02       5    8    1        -0.1639323842E+00      0.4015211998E+00
          0                 6           1             4    7     1       0.3565952229E-04       5    8    1         0.2079703368E-02      0.5094463613E-02

    ------------------------------------------------
       NWT REQUIRED            6 OUTER ITERATIONS 
       AND A TOTAL OF         11 INNER ITERATIONS.
    ------------------------------------------------

 NO OUTPUT CONTROL FOR STRESS PERIOD    7   TIME STEP   18
 
 SOLVING FOR HEAD 
                                                   Max.-Head-Change                         Max.-Flux-Residual
  Residual-Control   Outer-Iter.   Inner-Iter.     Column Row Layer    Maximum-Head-Change  Column Row Layer    Maximum-Flux-Residual          L2-NORM 
          0                 1           2             4    7     1       0.5795508557E-01       4    7    1         0.3037457593E+01      0.7661098189E+01
          0                 2           2             4    7     1      -0.5637458391E-02       4    7    1        -0.3037464203E+00      0.7772425931E+00
          0                 3           2             4    7     1      -0.6938560489E-01       5    8    1        -0.3726197673E+01      0.9167569279E+01
          0                 4           2             4    7     1       0.7260807849E-01       5    8    1         0.4005921254E+01      0.9812410657E+01
          0                 5           2             4    7     1      -0.2889859233E-02       5    8    1        -0.1639342690E+00      0.4015245223E+00
          0                 6           1             4    7     1       0.3565962255E-04       5    8    1         0.2079727037E-02      0.5094496959E-02

    ------------------------------------------------
       NWT REQUIRED            6 OUTER ITERATIONS 
       AND A TOTAL OF         11 INNER ITERATIONS.
    ------------------------------------------------

 NO OUTPUT CONTROL FOR STRESS PERIOD    7   TIME STEP   19
 
 SOLVING FOR HEAD 
                                                   Max.-Head-Change                         Max.-Flux-Residual
  Residual-Control   Outer-Iter.   Inner-Iter.     Column Row Layer    Maximum-Head-Change  Column Row Layer    Maximum-Flux-Residual          L2-NORM 
          0                 1           2             4    7     1       0.5742539477E-01       4    7    1         0.3011222681E+01      0.7473104906E+01
          0                 2           2             4    7     1      -0.5585937687E-02       4    7    1        -0.3011231810E+00      0.7587311390E+00
          0                 3           2             4    7     1      -0.6938917809E-01       5    8    1        -0.3726833761E+01      0.9168705546E+01
          0                 4           2             4    7     1       0.7260828944E-01       5    8    1         0.4005965270E+01      0.9812489631E+01
          0                 5           2             4    7     1      -0.2889867626E-02       5    8    1        -0.1639360512E+00      0.4015277395E+00
          0                 6           1             4    7     1       0.3565972594E-04       5    8    1         0.2079749407E-02      0.5094545655E-02

    ------------------------------------------------
       NWT REQUIRED            6 OUTER ITERATIONS 
       AND A TOTAL OF         11 INNER ITERATIONS.
    ------------------------------------------------

 NO OUTPUT CONTROL FOR STRESS PERIOD    7   TIME STEP   20
 
 SOLVING FOR HEAD 
                                                   Max.-Head-Change                         Max.-Flux-Residual
  Residual-Control   Outer-Iter.   Inner-Iter.     Column Row Layer    Maximum-Head-Change  Column Row Layer    Maximum-Flux-Residual          L2-NORM 
          0                 1           2             4    7     1       0.5687362107E-01       4    7    1         0.2983700828E+01      0.7293326777E+01
          0                 2           2             4    7     1      -0.5532268496E-02       4    7    1        -0.2983712182E+00      0.7410245359E+00
          0                 3           2             4    7     1      -0.6939289302E-01       5    8    1        -0.3727435626E+01      0.9169801793E+01
          0                 4           2             4    7     1       0.7260850160E-01       5    8    1         0.4006006669E+01      0.9812565169E+01
          0                 5           2             4    7     1      -0.2889876067E-02       5    8    1        -0.1639377273E+00      0.4015308040E+00
          0                 6           1             4    7     1       0.3565983022E-04       5    8    1         0.2079770446E-02      0.5094577583E-02

    ------------------------------------------------
       NWT REQUIRED            6 OUTER ITERATIONS 
       AND A TOTAL OF         11 INNER ITERATIONS.
    ------------------------------------------------

 NO OUTPUT CONTROL FOR STRESS PERIOD    7   TIME STEP   21
 
 SOLVING FOR HEAD 
                                                   Max.-Head-Change                         Max.-Flux-Residual
  Residual-Control   Outer-Iter.   Inner-Iter.     Column Row Layer    Maximum-Head-Change  Column Row Layer    Maximum-Flux-Residual          L2-NORM 
          0                 1           2             4    7     1       0.5630231274E-01       4    7    1         0.2955033994E+01      0.7121249046E+01
          0                 2           2             4    7     1      -0.5476698716E-02       4    7    1        -0.2955047305E+00      0.7240887420E+00
          0                 3           2             4    7     1      -0.6939674602E-01       5    8    1        -0.3728006156E+01      0.9170861703E+01
          0                 4           2             4    7     1       0.7260872806E-01       5    8    1         0.4006046367E+01      0.9812639765E+01
          0                 5           2             4    7     1      -0.2889885079E-02       5    8    1        -0.1639393347E+00      0.4015338959E+00
          0                 6           1             4    7     1       0.3565994157E-04       5    8    1         0.2079790636E-02      0.5094629298E-02

    ------------------------------------------------
       NWT REQUIRED            6 OUTER ITERATIONS 
       AND A TOTAL OF         11 INNER ITERATIONS.
    ------------------------------------------------

 NO OUTPUT CONTROL FOR STRESS PERIOD    7   TIME STEP   22
 
 SOLVING FOR HEAD 
                                                   Max.-Head-Change                         Max.-Flux-Residual
  Residual-Control   Outer-Iter.   Inner-Iter.     Column Row Layer    Maximum-Head-Change  Column Row Layer    Maximum-Flux-Residual          L2-NORM 
          0                 1           2             4    7     1       0.5571384711E-01       4    7    1         0.2925354301E+01      0.6956407172E+01
          0                 2           2             4    7     1      -0.5419459631E-02       4    7    1        -0.2925369325E+00      0.7078773701E+00
          0                 3           2             4    7     1      -0.6940070792E-01       5    8    1        -0.3728546756E+01      0.9171884959E+01
          0                 4           2             4    7     1       0.7260895421E-01       5    8    1         0.4006083745E+01      0.9812710042E+01
          0                 5           2             4    7     1      -0.2889894078E-02       5    8    1        -0.1639408483E+00      0.4015366727E+00
          0                 6           1             4    7     1       0.3566005246E-04       5    8    1         0.2079809633E-02      0.5094654526E-02

    ------------------------------------------------
       NWT REQUIRED            6 OUTER ITERATIONS 
       AND A TOTAL OF         11 INNER ITERATIONS.
    ------------------------------------------------

 NO OUTPUT CONTROL FOR STRESS PERIOD    7   TIME STEP   23
 
 SOLVING FOR HEAD 
                                                   Max.-Head-Change                         Max.-Flux-Residual
  Residual-Control   Outer-Iter.   Inner-Iter.     Column Row Layer    Maximum-Head-Change  Column Row Layer    Maximum-Flux-Residual          L2-NORM 
          0                 1           2             4    7     1       0.5511029644E-01       4    7    1         0.2894777718E+01      0.6798360105E+01
          0                 2           2             4    7     1      -0.5360752850E-02       4    7    1        -0.2894794230E+00      0.6923467756E+00
          0                 3           2             4    7     1      -0.6940476935E-01       5    8    1        -0.3729059463E+01      0.9172873620E+01
          0                 4           2             4    7     1       0.7260918402E-01       5    8    1         0.4006119184E+01      0.9812778630E+01
          0                 5           2             4    7     1      -0.2889903222E-02       5    8    1        -0.1639422833E+00      0.4015394590E+00
          0                 6           1             4    7     1       0.3566016560E-04       5    8    1         0.2079827663E-02      0.5094688232E-02

    ------------------------------------------------
       NWT REQUIRED            6 OUTER ITERATIONS 
       AND A TOTAL OF         11 INNER ITERATIONS.
    ------------------------------------------------

 NO OUTPUT CONTROL FOR STRESS PERIOD    7   TIME STEP   24
 
 SOLVING FOR HEAD 
                                                   Max.-Head-Change                         Max.-Flux-Residual
  Residual-Control   Outer-Iter.   Inner-Iter.     Column Row Layer    Maximum-Head-Change  Column Row Layer    Maximum-Flux-Residual          L2-NORM 
          0                 1           2             4    7     1       0.5449371786E-01       4    7    1         0.2863418981E+01      0.6646706572E+01
          0                 2           2             4    7     1      -0.5300778503E-02       4    7    1        -0.2863436778E+00      0.6774560452E+00
          0                 3           2             4    7     1      -0.6940891218E-01       5    8    1        -0.3729545922E+01      0.9173829138E+01
          0                 4           2             4    7     1       0.7260941224E-01       5    8    1         0.4006152560E+01      0.9812844281E+01
          0                 5           2             4    7     1      -0.2889912304E-02       5    8    1        -0.1639436346E+00      0.4015421225E+00
          0                 6           1             4    7     1       0.3566027750E-04       5    8    1         0.2079844628E-02      0.5094712797E-02

    ------------------------------------------------
       NWT REQUIRED            6 OUTER ITERATIONS 
       AND A TOTAL OF         11 INNER ITERATIONS.
    ------------------------------------------------

 NO OUTPUT CONTROL FOR STRESS PERIOD    7   TIME STEP   25
 
 SOLVING FOR HEAD 
                                                   Max.-Head-Change                         Max.-Flux-Residual
  Residual-Control   Outer-Iter.   Inner-Iter.     Column Row Layer    Maximum-Head-Change  Column Row Layer    Maximum-Flux-Residual          L2-NORM 
          0                 1           2             4    7     1       0.5386589040E-01       4    7    1         0.2831377451E+01      0.6501077922E+01
          0                 2           2             4    7     1      -0.5239709670E-02       4    7    1        -0.2831396348E+00      0.6631690561E+00
          0                 3           2             4    7     1      -0.6941313786E-01       5    8    1        -0.3730008375E+01      0.9174754103E+01
          0                 4           2             4    7     1       0.7260965217E-01       5    8    1         0.4006184743E+01      0.9812908710E+01
          0                 5           2             4    7     1      -0.2889921852E-02       5    8    1        -0.1639449380E+00      0.4015445017E+00
          0                 6           1             4    7     1       0.3566039534E-04       5    8    1         0.2079860985E-02      0.5094751376E-02

    ------------------------------------------------
       NWT REQUIRED            6 OUTER ITERATIONS 
       AND A TOTAL OF         11 INNER ITERATIONS.
    ------------------------------------------------

 NO OUTPUT CONTROL FOR STRESS PERIOD    7   TIME STEP   26
 
 SOLVING FOR HEAD 
                                                   Max.-Head-Change                         Max.-Flux-Residual
  Residual-Control   Outer-Iter.   Inner-Iter.     Column Row Layer    Maximum-Head-Change  Column Row Layer    Maximum-Flux-Residual          L2-NORM 
          0                 1           2             4    7     1       0.5322872159E-01       4    7    1         0.2798759962E+01      0.6361121360E+01
          0                 2           2             4    7     1      -0.5177731928E-02       4    7    1        -0.2798779792E+00      0.6494500798E+00
          0                 3           2             4    7     1      -0.6941742037E-01       5    8    1        -0.3730447686E+01      0.9175648589E+01
          0                 4           2             4    7     1       0.7260988937E-01       5    8    1         0.4006215079E+01      0.9812970934E+01
          0                 5           2             4    7     1      -0.2889931291E-02       5    8    1        -0.1639461664E+00      0.4015472657E+00
          0                 6           1             4    7     1       0.3566051173E-04       5    8    1         0.2079876423E-02      0.5094789158E-02

    ------------------------------------------------
       NWT REQUIRED            6 OUTER ITERATIONS 
       AND A TOTAL OF         11 INNER ITERATIONS.
    ------------------------------------------------

 NO OUTPUT CONTROL FOR STRESS PERIOD    7   TIME STEP   27
 
 SOLVING FOR HEAD 
                                                   Max.-Head-Change                         Max.-Flux-Residual
  Residual-Control   Outer-Iter.   Inner-Iter.     Column Row Layer    Maximum-Head-Change  Column Row Layer    Maximum-Flux-Residual          L2-NORM 
          0                 1           2             4    7     1       0.5258385178E-01       4    7    1         0.2765658121E+01      0.6226520411E+01
          0                 2           2             4    7     1      -0.5115004862E-02       4    7    1        -0.2765678731E+00      0.6362676862E+00
          0                 3           2             4    7     1      -0.6942175323E-01       5    8    1        -0.3730865561E+01      0.9176514330E+01
          0                 4           2             4    7     1       0.7261012796E-01       5    8    1         0.4006243924E+01      0.9813030880E+01
          0                 5           2             4    7     1      -0.2889940785E-02       5    8    1        -0.1639473346E+00      0.4015497020E+00
          0                 6           1             4    7     1       0.3566062901E-04       5    8    1         0.2079891080E-02      0.5094820737E-02

    ------------------------------------------------
       NWT REQUIRED            6 OUTER ITERATIONS 
       AND A TOTAL OF         11 INNER ITERATIONS.
    ------------------------------------------------

 NO OUTPUT CONTROL FOR STRESS PERIOD    7   TIME STEP   28
 
 SOLVING FOR HEAD 
                                                   Max.-Head-Change                         Max.-Flux-Residual
  Residual-Control   Outer-Iter.   Inner-Iter.     Column Row Layer    Maximum-Head-Change  Column Row Layer    Maximum-Flux-Residual          L2-NORM 
          0                 1           2             4    7     1       0.5193266051E-01       4    7    1         0.2732149678E+01      0.6096971416E+01
          0                 2           2             4    7     1      -0.5051662684E-02       4    7    1        -0.2732170931E+00      0.6235912787E+00
          0                 3           2             4    7     1      -0.6942613170E-01       5    8    1        -0.3731263487E+01      0.9177353123E+01
          0                 4           2             4    7     1       0.7261037213E-01       5    8    1         0.4006271621E+01      0.9813089515E+01
          0                 5           2             4    7     1      -0.2889950502E-02       5    8    1        -0.1639484563E+00      0.4015520787E+00
          0                 6           1             4    7     1       0.3566074887E-04       5    8    1         0.2079905164E-02      0.5094850624E-02

    ------------------------------------------------
       NWT REQUIRED            6 OUTER ITERATIONS 
       AND A TOTAL OF         11 INNER ITERATIONS.
    ------------------------------------------------

 NO OUTPUT CONTROL FOR STRESS PERIOD    7   TIME STEP   29
 
 SOLVING FOR HEAD 
                                                   Max.-Head-Change                         Max.-Flux-Residual
  Residual-Control   Outer-Iter.   Inner-Iter.     Column Row Layer    Maximum-Head-Change  Column Row Layer    Maximum-Flux-Residual          L2-NORM 
          0                 1           2             4    7     1       0.5127666980E-01       4    7    1         0.2698320759E+01      0.5960505554E+01
          0                 2           2             4    7     1      -0.4987853465E-02       4    7    1        -0.2698342531E+00      0.6075965219E+00
          0                 3           2             4    7     1      -0.6943053231E-01       5    8    1        -0.3731641967E+01      0.9177934084E+01
          0                 4           2             4    7     1       0.7261060754E-01       5    8    1         0.4006297522E+01      0.9813214653E+01
          0                 5           2             4    7     1      -0.2889959871E-02       5    8    1        -0.1639495065E+00      0.4015624249E+00
          0                 6           1             4    7     1       0.3566086447E-04       5    8    1         0.2079918366E-02      0.5095915754E-02

    ------------------------------------------------
       NWT REQUIRED            6 OUTER ITERATIONS 
       AND A TOTAL OF         11 INNER ITERATIONS.
    ------------------------------------------------

 NO OUTPUT CONTROL FOR STRESS PERIOD    7   TIME STEP   30



 STREAM LISTING     PERIOD      7   STEP       30

 LAYER ROW COL. STREAM  RCH.  FLOW INTO     FLOW TO   FLOW OUT OF   OVRLND.     DIRECT     STREAM       STREAM     STREAM     STREAM   STREAMBED  STREAMBED
                SEG.NO.  NO.  STRM. RCH.    AQUIFER    STRM. RCH.    RUNOFF     PRECIP       ET          HEAD       DEPTH      WIDTH   CONDCTNC.   GRADIENT

   1    1    1     1     1    2.8852E+01  2.6229E-01   2.8590E+01  0.000E+00  0.000E+00  0.000E+00  1.09428E+03  1.233E+00  1.377E+01  6.197E-02  1.411E+00
   1    2    2     1     2    2.8590E+01  4.0577E-01   2.8184E+01  0.000E+00  0.000E+00  0.000E+00  1.08929E+03  1.228E+00  1.371E+01  9.596E-02  1.409E+00
   1    3    3     1     3    2.8184E+01  3.4562E-01   2.7838E+01  0.000E+00  0.000E+00  0.000E+00  1.08364E+03  1.223E+00  1.364E+01  8.184E-02  1.408E+00
   1    3    4     1     4    2.7838E+01  3.1791E-01   2.7521E+01  0.000E+00  0.000E+00  0.000E+00  1.07863E+03  1.219E+00  1.358E+01  7.536E-02  1.406E+00
   1    4    5     2     1    2.5521E+01  3.2899E-01   2.5192E+01  0.000E+00  0.000E+00  0.000E+00  1.07315E+03  1.218E+00  1.200E+01  7.800E-02  1.406E+00
   1    5    6     2     2    2.5192E+01  2.5257E-01   2.4939E+01  0.000E+00  0.000E+00  0.000E+00  1.06772E+03  1.209E+00  1.200E+01  6.000E-02  1.403E+00
   1    6    6     2     3    2.4939E+01  2.5213E-01   2.4687E+01  0.000E+00  0.000E+00  0.000E+00  1.06299E+03  1.202E+00  1.200E+01  6.000E-02  1.401E+00
   1    7    6     2     4    2.4687E+01  2.5169E-01   2.4435E+01  0.000E+00  0.000E+00  0.000E+00  1.05827E+03  1.195E+00  1.200E+01  6.000E-02  1.398E+00
   1    8    6     2     5    2.4435E+01  2.5125E-01   2.4184E+01  0.000E+00  0.000E+00  0.000E+00  1.05355E+03  1.187E+00  1.200E+01  6.000E-02  1.396E+00
   1    3    5     3     1    2.0000E+00  2.8252E-01   1.7175E+00  0.000E+00  0.000E+00  0.000E+00  1.07555E+03  1.909E+00  9.636E+00  7.227E-02  1.955E+00
   1    3    6     3     2    1.7175E+00  2.4905E-01   1.4684E+00  0.000E+00  0.000E+00  0.000E+00  1.07264E+03  1.727E+00  8.909E+00  6.682E-02  1.864E+00
   1    3    7     3     3    1.4684E+00  1.9718E-01   1.2712E+00  0.000E+00  0.000E+00  0.000E+00  1.06987E+03  1.555E+00  8.218E+00  5.547E-02  1.777E+00
   1    4    8     3     4    1.2712E+00  2.2567E-01   1.0456E+00  0.000E+00  0.000E+00  0.000E+00  1.06682E+03  1.364E+00  7.455E+00  6.709E-02  1.682E+00
   1    5    8     3     5    1.0456E+00  1.5790E-01   8.8768E-01  0.000E+00  0.000E+00  0.000E+00  1.06362E+03  1.164E+00  6.655E+00  4.991E-02  1.582E+00
   1    6    8     3     6    8.8768E-01  5.5980E-02   8.3170E-01  0.000E+00  0.000E+00  0.000E+00  1.06158E+03  1.036E+00  6.145E+00  1.844E-02  1.518E+00
   1    5   10     4     1    1.0000E+01  9.0919E-02   9.9091E+00  0.000E+00  0.000E+00  0.000E+00  1.07836E+03  6.368E-01  1.000E+01  2.500E-02  1.212E+00
   1    5    9     4     2    9.9091E+00  1.8158E-01   9.7275E+00  0.000E+00  0.000E+00  0.000E+00  1.07154E+03  6.315E-01  1.000E+01  5.000E-02  1.211E+00
   1    6    8     4     3    9.7275E+00  1.2689E-01   9.6006E+00  0.000E+00  0.000E+00  0.000E+00  1.06381E+03  6.256E-01  1.000E+01  3.500E-02  1.209E+00
   1    6    8     5     1    1.0432E+01  2.2686E-01   1.0205E+01  0.000E+00  0.000E+00  0.000E+00  1.05868E+03  6.790E-01  1.542E+01  6.166E-02  1.226E+00
   1    7    7     5     2    1.0205E+01  2.7894E-01   9.9265E+00  0.000E+00  0.000E+00  0.000E+00  1.05417E+03  6.732E-01  1.519E+01  7.594E-02  1.224E+00
   1    8    7     5     3    9.9265E+00  1.9221E-01   9.7343E+00  0.000E+00  0.000E+00  0.000E+00  1.04992E+03  6.676E-01  1.497E+01  5.241E-02  1.223E+00
   1    8    6     5     4    9.7343E+00  1.3577E-01   9.5985E+00  0.000E+00  0.000E+00  0.000E+00  1.04691E+03  6.637E-01  1.482E+01  3.706E-02  1.221E+00
   1    9    6     6     1    1.1312E+01  2.2525E-01   1.1087E+01  0.000E+00  0.000E+00  0.000E+00  1.04348E+03  7.542E-01  1.200E+01  6.000E-02  1.251E+00
   1   10    7     6     2    1.1087E+01  2.2471E-01   1.0863E+01  0.000E+00  0.000E+00  0.000E+00  1.03893E+03  7.451E-01  1.200E+01  6.000E-02  1.248E+00
   1   11    7     6     3    1.0863E+01  2.2415E-01   1.0638E+01  0.000E+00  0.000E+00  0.000E+00  1.03437E+03  7.359E-01  1.200E+01  6.000E-02  1.245E+00
   1   12    7     6     4    1.0638E+01  2.2360E-01   1.0415E+01  0.000E+00  0.000E+00  0.000E+00  1.02982E+03  7.267E-01  1.200E+01  6.000E-02  1.242E+00
   1   13    7     6     5    1.0415E+01 -4.9474E-02   1.0464E+01  0.000E+00  0.000E+00  0.000E+00  1.02663E+03  7.231E-01  1.200E+01  2.400E-01 -6.871E-02
   1   14    9     7     1    1.5000E+02  1.3681E+00   1.4863E+02  0.000E+00  0.000E+00  0.000E+00  1.03987E+03  2.288E+00  5.529E+01  5.593E-01  8.153E-01
   1   13    8     7     2    1.4863E+02  1.9179E+00   1.4671E+02  0.000E+00  0.000E+00  0.000E+00  1.03478E+03  2.279E+00  5.526E+01  6.148E-01  1.040E+00
   1   13    7     7     3    1.4671E+02  1.5918E+00   1.4512E+02  0.000E+00  0.000E+00  0.000E+00  1.02969E+03  2.270E+00  5.521E+01  5.584E-01  9.502E-01
   1   13    6     8     1    1.5559E+02  9.5255E-01   1.5463E+02  0.000E+00  0.000E+00  0.000E+00  1.02473E+03  2.852E+00  4.136E+01  4.215E-01  7.533E-01
   1   13    5     8     2    1.5463E+02  2.1213E-01   1.5442E+02  0.000E+00  0.000E+00  0.000E+00  1.01847E+03  2.848E+00  4.130E+01  4.209E-01  1.680E-01
   1   13    4     8     3    1.5442E+02 -2.3292E+00   1.5675E+02  0.000E+00  0.000E+00  0.000E+00  1.01223E+03  2.856E+00  4.141E+01  4.220E+00 -1.840E-01
   1   13    3     8     4    1.5675E+02 -3.6031E+00   1.6035E+02  0.000E+00  0.000E+00  0.000E+00  1.00600E+03  2.876E+00  4.170E+01  4.250E+00 -2.826E-01
   1   13    2     8     5    1.6035E+02 -2.5960E+00   1.6295E+02  0.000E+00  0.000E+00  0.000E+00  9.99772E+02  2.897E+00  4.201E+01  4.281E+00 -2.022E-01
   1   13    1     8     6    1.6295E+02 -1.9953E+00   1.6495E+02  0.000E+00  0.000E+00  0.000E+00  9.94787E+02  2.912E+00  4.223E+01  2.582E+00 -2.576E-01
   1    8    6     9     1    2.2470E+01  0.0000E+00   2.2470E+01  0.000E+00  0.000E+00  0.000E+00  1.08243E+03  3.683E+00  4.000E+00  0.000E+00  2.228E+00
   1    8    5     9     2    2.2470E+01  0.0000E+00   2.2470E+01  0.000E+00  0.000E+00  0.000E+00  1.08193E+03  3.683E+00  4.000E+00  0.000E+00  2.228E+00





UNSATURATED ZONE PACKAGE VOLUMETRIC BUDGET FOR  TIME STEP    30 STRESS PERIOD    7
  ------------------------------------------------------------------------------



     CUMULATIVE VOLUMES      L**3       RATES FOR THIS TIME STEP      L**3/T
     ------------------                 ------------------------

           IN:                                      IN:
           ---                                      ---
        INFILTRATION =   378040578.6497          INFILTRATION =          23.3179

          OUT:                                     OUT:
          ----                                     ----
              UZF ET =   104055824.1649                UZF ET =          23.3175
        UZF RECHARGE =       73224.0000          UZF RECHARGE =       0.0000E+00

            IN - OUT =   273911530.4848              IN - OUT =       4.1199E-04

          STORAGE:                                 STORAGE:
          --------                                 --------
      STORAGE CHANGE =   273911625.2732        STORAGE CHANGE =       4.1141E-04

 PERCENT DISCREPANCY IS DIFFERENCE BETWEEN IN-OUT MINUS CHANGE IN STORAGE
 DIVIDED BY THE AVERAGE OF IN AND OUT TIMES 100

 PERCENT DISCREPANCY =          -0.00     PERCENT DISCREPANCY =           0.00






1
  VOLUMETRIC BUDGET FOR AGRICULTURAL FIELDS AT  END OF TIME STEP   30, STRESS PERIOD   7
  ------------------------------------------------------------------------------

     CUMULATIVE VOLUMES      L**3       RATES FOR THIS TIME STEP      L**3/T
     ------------------                 ------------------------

           IN:                                      IN:
           ---                                      ---
               AG WELLS  =   223804848.0000                 AG WELLS  =           0.0000
      DIVERSION SEGMENTS =   140786528.0000        DIVERSION SEGMENTS =          22.4700
           GW IRRIGATION =           0.0000             GW IRRIGATION =           0.0000
           SW IRRIGATION =           0.0000             SW IRRIGATION =           0.0000
        SYSTEM LOSSES GW =           0.0000          SYSTEM LOSSES GW =           0.0000
        SYSTEM LOSSES SW =           0.0000          SYSTEM LOSSES SW =           0.0000

                TOTAL IN =   364591360.0000                  TOTAL IN =          22.4700

          OUT:                                     OUT:
          ----                                     ----
               AG WELLS  =           0.0000                 AG WELLS  =           0.0000
      DIVERSION SEGMENTS =           0.0000        DIVERSION SEGMENTS =           0.0000
           GW IRRIGATION =   223804848.0000             GW IRRIGATION =           0.0000
           SW IRRIGATION =   140789280.0000             SW IRRIGATION =          22.4704
        SYSTEM LOSSES GW =           0.0000          SYSTEM LOSSES GW =           0.0000
        SYSTEM LOSSES SW =           0.0000          SYSTEM LOSSES SW =           0.0000

               TOTAL OUT =   364594112.0000                 TOTAL OUT =          22.4704

                IN - OUT =       -2752.0000                  IN - OUT =      -4.4823E-04

     PERCENT DISCREPANCY =          -0.00         PERCENT DISCREPANCY =          -0.00



1
  VOLUMETRIC BUDGET FOR ENTIRE MODEL AT END OF TIME STEP   30, STRESS PERIOD   7
  ------------------------------------------------------------------------------

     CUMULATIVE VOLUMES      L**3       RATES FOR THIS TIME STEP      L**3/T
     ------------------                 ------------------------

           IN:                                      IN:
           ---                                      ---
             STORAGE     =   286736512.0000               STORAGE     =          12.3172
       CONSTANT HEAD     =           0.0000         CONSTANT HEAD     =           0.0000
     HEAD DEP BOUNDS     =     4567472.0000       HEAD DEP BOUNDS     =           0.2880
      STREAM LEAKAGE     =   187276704.0000        STREAM LEAKAGE     =          12.0099
        UZF RECHARGE     =       73223.9531          UZF RECHARGE     =           0.0000
               GW ET     =           0.0000                 GW ET     =           0.0000
     SURFACE LEAKAGE     =           0.0000       SURFACE LEAKAGE     =           0.0000
           AG WELLS      =           0.0000             AG WELLS      =           0.0000

                TOTAL IN =   478653920.0000                  TOTAL IN =          24.6150

          OUT:                                     OUT:
          ----                                     ----
             STORAGE     =    86304160.0000               STORAGE     =          13.7545
       CONSTANT HEAD     =           0.0000         CONSTANT HEAD     =           0.0000
     HEAD DEP BOUNDS     =     4570147.0000       HEAD DEP BOUNDS     =           0.2873
      STREAM LEAKAGE     =   163977888.0000        STREAM LEAKAGE     =          10.5731
        UZF RECHARGE     =           0.0000          UZF RECHARGE     =           0.0000
               GW ET     =           0.0000                 GW ET     =           0.0000
     SURFACE LEAKAGE     =           0.0000       SURFACE LEAKAGE     =           0.0000
           AG WELLS      =   223804848.0000             AG WELLS      =           0.0000

               TOTAL OUT =   478657024.0000                 TOTAL OUT =          24.6148

                IN - OUT =       -3104.0000                  IN - OUT =       1.8692E-04

     PERCENT DISCREPANCY =          -0.00         PERCENT DISCREPANCY =           0.00






         TIME SUMMARY AT END OF TIME STEP   30 IN STRESS PERIOD    7
                    SECONDS     MINUTES      HOURS       DAYS        YEARS
                    -----------------------------------------------------------
   TIME STEP LENGTH  87667.      1461.1      24.352      1.0147     2.77799E-03
 STRESS PERIOD TIME 2.63000E+06  43833.      730.56      30.440     8.33397E-02
         TOTAL TIME 1.58664E+07 2.64440E+05  4407.3      183.64     0.50278    
1
1
                            STRESS PERIOD NO.    8, LENGTH =   2630000.    
                            -----------------------------------------------

                              NUMBER OF TIME STEPS =    30

                               MULTIPLIER FOR DELT =     1.000

                            INITIAL TIME STEP SIZE =   87666.66    

 REUSING NON-PARAMETER GHB CELLS FROM LAST STRESS PERIOD

      2 GHB CELLS

 REUSING STREAM SEGMENT DATA FROM LAST STRESS PERIOD



            AREAL INFILTRATION RATE
 READING ON UNIT   19 WITH FORMAT: (FREE)              

            1           2           3           4           5           6           7           8           9          10
 ........................................................................................................................
   1   1.0000E-10  2.0000E-10   0.000       0.000       0.000       0.000       0.000       0.000       0.000       0.000    
   2   2.0000E-10  1.0000E-10  2.0000E-10   0.000       0.000      8.0000E-10  8.0000E-10  5.0000E-10   0.000       0.000    
   3    0.000      5.0000E-10  1.0000E-10  1.0000E-10  8.0000E-10  8.0000E-10  5.0000E-10  5.0000E-10   0.000       0.000    
   4   8.0000E-10  5.0000E-10  1.0000E-10  1.0000E-10  1.0000E-10  1.0000E-10  1.0000E-10  1.0000E-10  2.0000E-10   0.000    
   5   8.0000E-10  5.0000E-10  1.0000E-10  1.0000E-10  1.0000E-10  1.0000E-10  1.0000E-10  1.0000E-10  1.0000E-10  1.0000E-10
   6   8.0000E-10  5.0000E-10  5.0000E-10  2.0000E-10  2.0000E-10  1.0000E-10  1.0000E-10  1.0000E-10  1.0000E-10  5.0000E-10
   7   8.0000E-10  5.0000E-10  5.0000E-10  2.0000E-10  2.0000E-10  1.0000E-10  1.0000E-10  2.0000E-10  2.0000E-10   0.000    
   8    0.000      5.0000E-10  5.0000E-10  2.0000E-10  2.0000E-10  1.0000E-10  1.0000E-10  2.0000E-10  5.0000E-10   0.000    
   9    0.000      5.0000E-10  5.0000E-10  2.0000E-10  2.0000E-10  1.0000E-10  1.0000E-10  2.0000E-10  5.0000E-10   0.000    
  10    0.000      5.0000E-10  5.0000E-10  2.0000E-10  2.0000E-10  1.0000E-10  1.0000E-10  2.0000E-10  5.0000E-10  8.0000E-10
  11    0.000      1.0000E-10  1.0000E-10  1.0000E-10  1.0000E-10  1.0000E-10  1.0000E-10  2.0000E-10  5.0000E-10   0.000    
  12   1.0000E-10  1.0000E-10  1.0000E-10  1.0000E-10  1.0000E-10  1.0000E-10  1.0000E-10  1.0000E-10  2.0000E-10   0.000    
  13   1.0000E-10  1.0000E-10  2.0000E-10  2.0000E-10  2.0000E-10  2.0000E-10  2.0000E-10  1.0000E-10  1.0000E-10   0.000    
  14    0.000      2.0000E-10  5.0000E-10  5.0000E-10  5.0000E-10  5.0000E-10  5.0000E-10  2.0000E-10  1.0000E-10   0.000    
  15    0.000       0.000      8.0000E-10  8.0000E-10  8.0000E-10  8.0000E-10   0.000       0.000       0.000       0.000    

                  ET RATE =  4.000000E-07

 USING ET EXTINCTION DEPTH FROM PREVIOUS STRESS PERIOD. CURRENT PERIOD IS:       8

 USING EXTINCTION WATER CONTENT FROM PREVIOUS STRESS PERIOD. CURRENT PERIOD IS:       8

 USING AIR ENTRY PRESSURE FROM PREVIOUS STRESS PERIOD. CURRENT PERIOD IS:       8

 USING ROOT PRESSURE HEAD FROM PREVIOUS STRESS PERIOD. CURRENT PERIOD IS:       8

 USING ROOT ACTIVITY FROM PREVIOUS STRESS PERIOD. CURRENT PERIOD IS:       8

 PROCESSING AG STRESS PERIOD DATA

 READING AG STRESS PERIOD DATA

 READING IRRIGATION SEGMENT

 READING IRRIGATION WELL

 READING SUPPLEMENTAL WELL

 END PROCESSING AG STRESS PERIOD DATA OPTIONS
 
 SOLVING FOR HEAD 
                                                   Max.-Head-Change                         Max.-Flux-Residual
  Residual-Control   Outer-Iter.   Inner-Iter.     Column Row Layer    Maximum-Head-Change  Column Row Layer    Maximum-Flux-Residual          L2-NORM 
          0                 1           2             4    7     1       0.5061703371E-01       4    7    1         0.2664235677E+01      0.5792573452E+01
          0                 2           2             4    7     1      -0.2347504755E+00       4    7    1        -0.1260108629E+02      0.3075304856E+02
          0                 3           2             4    7     1       0.1598531401E-01       4    7    1         0.8820532531E+00      0.2152486839E+01
          0                 4           2             4    7     1      -0.6360721435E-03       4    7    1        -0.3607588100E-01      0.8803066886E-01
          0                 5           1             4    7     1       0.7843042790E-05       4    7    1         0.4571759359E-03      0.1118748478E-02

    ------------------------------------------------
       NWT REQUIRED            5 OUTER ITERATIONS 
       AND A TOTAL OF          9 INNER ITERATIONS.
    ------------------------------------------------

 OUTPUT CONTROL FOR STRESS PERIOD    8   TIME STEP    1
    PRINT BUDGET
    SAVE BUDGET
 UBDSV1 SAVING "         STORAGE" ON UNIT 102 AT TIME STEP  1, STRESS PERIOD   8
 UBDSV2 SAVING "   CONSTANT HEAD" ON UNIT 102 AT TIME STEP  1, STRESS PERIOD   8
 UBDSV1 SAVING "FLOW RIGHT FACE " ON UNIT 102 AT TIME STEP  1, STRESS PERIOD   8
 UBDSV1 SAVING "FLOW FRONT FACE " ON UNIT 102 AT TIME STEP  1, STRESS PERIOD   8

  HEAD DEP BOUNDS   PERIOD    8   STEP     1
 BOUNDARY      1   LAYER   1   ROW    13   COL     1   RATE   -0.287255    
 BOUNDARY      2   LAYER   1   ROW    14   COL     9   RATE    0.287955    



 STREAM LISTING     PERIOD      8   STEP        1

 LAYER ROW COL. STREAM  RCH.  FLOW INTO     FLOW TO   FLOW OUT OF   OVRLND.     DIRECT     STREAM       STREAM     STREAM     STREAM   STREAMBED  STREAMBED
                SEG.NO.  NO.  STRM. RCH.    AQUIFER    STRM. RCH.    RUNOFF     PRECIP       ET          HEAD       DEPTH      WIDTH   CONDCTNC.   GRADIENT

   1    1    1     1     1    2.8125E+01  2.5915E-01   2.7866E+01  0.000E+00  0.000E+00  0.000E+00  1.09427E+03  1.223E+00  1.364E+01  6.137E-02  1.408E+00
   1    2    2     1     2    2.7866E+01  4.0087E-01   2.7465E+01  0.000E+00  0.000E+00  0.000E+00  1.08928E+03  1.218E+00  1.358E+01  9.503E-02  1.406E+00
   1    3    3     1     3    2.7465E+01  3.4143E-01   2.7124E+01  0.000E+00  0.000E+00  0.000E+00  1.08363E+03  1.213E+00  1.351E+01  8.104E-02  1.404E+00
   1    3    4     1     4    2.7124E+01  3.1403E-01   2.6810E+01  0.000E+00  0.000E+00  0.000E+00  1.07862E+03  1.209E+00  1.344E+01  7.461E-02  1.403E+00
   1    4    5     2     1    2.4810E+01  3.2739E-01   2.4482E+01  0.000E+00  0.000E+00  0.000E+00  1.07313E+03  1.197E+00  1.200E+01  7.800E-02  1.399E+00
   1    5    6     2     2    2.4482E+01  2.5133E-01   2.4231E+01  0.000E+00  0.000E+00  0.000E+00  1.06770E+03  1.189E+00  1.200E+01  6.000E-02  1.396E+00
   1    6    6     2     3    2.4231E+01  2.5089E-01   2.3980E+01  0.000E+00  0.000E+00  0.000E+00  1.06297E+03  1.181E+00  1.200E+01  6.000E-02  1.394E+00
   1    7    6     2     4    2.3980E+01  2.5044E-01   2.3730E+01  0.000E+00  0.000E+00  0.000E+00  1.05825E+03  1.174E+00  1.200E+01  6.000E-02  1.391E+00
   1    8    6     2     5    2.3730E+01  2.5000E-01   2.3480E+01  0.000E+00  0.000E+00  0.000E+00  1.05353E+03  1.167E+00  1.200E+01  6.000E-02  1.389E+00
   1    3    5     3     1    2.0000E+00  2.8252E-01   1.7175E+00  0.000E+00  0.000E+00  0.000E+00  1.07555E+03  1.909E+00  9.636E+00  7.227E-02  1.955E+00
   1    3    6     3     2    1.7175E+00  2.4905E-01   1.4684E+00  0.000E+00  0.000E+00  0.000E+00  1.07264E+03  1.727E+00  8.909E+00  6.682E-02  1.864E+00
   1    3    7     3     3    1.4684E+00  1.9718E-01   1.2712E+00  0.000E+00  0.000E+00  0.000E+00  1.06987E+03  1.555E+00  8.218E+00  5.547E-02  1.777E+00
   1    4    8     3     4    1.2712E+00  2.2567E-01   1.0456E+00  0.000E+00  0.000E+00  0.000E+00  1.06682E+03  1.364E+00  7.455E+00  6.709E-02  1.682E+00
   1    5    8     3     5    1.0456E+00  1.5790E-01   8.8768E-01  0.000E+00  0.000E+00  0.000E+00  1.06362E+03  1.164E+00  6.655E+00  4.991E-02  1.582E+00
   1    6    8     3     6    8.8768E-01  5.5980E-02   8.3170E-01  0.000E+00  0.000E+00  0.000E+00  1.06158E+03  1.036E+00  6.145E+00  1.844E-02  1.518E+00
   1    5   10     4     1    1.0000E+01  9.0919E-02   9.9091E+00  0.000E+00  0.000E+00  0.000E+00  1.07836E+03  6.368E-01  1.000E+01  2.500E-02  1.212E+00
   1    5    9     4     2    9.9091E+00  1.8158E-01   9.7275E+00  0.000E+00  0.000E+00  0.000E+00  1.07154E+03  6.315E-01  1.000E+01  5.000E-02  1.211E+00
   1    6    8     4     3    9.7275E+00  1.2689E-01   9.6006E+00  0.000E+00  0.000E+00  0.000E+00  1.06381E+03  6.256E-01  1.000E+01  3.500E-02  1.209E+00
   1    6    8     5     1    1.0432E+01  2.2686E-01   1.0205E+01  0.000E+00  0.000E+00  0.000E+00  1.05868E+03  6.790E-01  1.542E+01  6.166E-02  1.226E+00
   1    7    7     5     2    1.0205E+01  2.7894E-01   9.9265E+00  0.000E+00  0.000E+00  0.000E+00  1.05417E+03  6.732E-01  1.519E+01  7.594E-02  1.224E+00
   1    8    7     5     3    9.9265E+00  1.9221E-01   9.7343E+00  0.000E+00  0.000E+00  0.000E+00  1.04992E+03  6.676E-01  1.497E+01  5.241E-02  1.223E+00
   1    8    6     5     4    9.7343E+00  1.3577E-01   9.5985E+00  0.000E+00  0.000E+00  0.000E+00  1.04691E+03  6.637E-01  1.482E+01  3.706E-02  1.221E+00
   1    9    6     6     1    9.5985E+00  2.2097E-01   9.3776E+00  0.000E+00  0.000E+00  0.000E+00  1.04341E+03  6.828E-01  1.200E+01  6.000E-02  1.228E+00
   1   10    7     6     2    9.3776E+00  2.2039E-01   9.1572E+00  0.000E+00  0.000E+00  0.000E+00  1.03885E+03  6.732E-01  1.200E+01  6.000E-02  1.224E+00
   1   11    7     6     3    9.1572E+00  2.1981E-01   8.9374E+00  0.000E+00  0.000E+00  0.000E+00  1.03430E+03  6.636E-01  1.200E+01  6.000E-02  1.221E+00
   1   12    7     6     4    8.9374E+00  2.1923E-01   8.7181E+00  0.000E+00  0.000E+00  0.000E+00  1.02974E+03  6.539E-01  1.200E+01  6.000E-02  1.218E+00
   1   13    7     6     5    8.7181E+00 -6.6742E-02   8.7849E+00  0.000E+00  0.000E+00  0.000E+00  1.02656E+03  6.505E-01  1.200E+01  2.400E-01 -9.270E-02
   1   14    9     7     1    1.5000E+02  1.3681E+00   1.4863E+02  0.000E+00  0.000E+00  0.000E+00  1.03987E+03  2.288E+00  5.529E+01  5.593E-01  8.154E-01
   1   13    8     7     2    1.4863E+02  1.9180E+00   1.4671E+02  0.000E+00  0.000E+00  0.000E+00  1.03478E+03  2.279E+00  5.526E+01  6.148E-01  1.040E+00
   1   13    7     7     3    1.4671E+02  1.5921E+00   1.4512E+02  0.000E+00  0.000E+00  0.000E+00  1.02969E+03  2.270E+00  5.521E+01  5.584E-01  9.504E-01
   1   13    6     8     1    1.5391E+02  9.4406E-01   1.5296E+02  0.000E+00  0.000E+00  0.000E+00  1.02472E+03  2.841E+00  4.119E+01  4.198E-01  7.497E-01
   1   13    5     8     2    1.5296E+02  2.0667E-01   1.5276E+02  0.000E+00  0.000E+00  0.000E+00  1.01846E+03  2.837E+00  4.113E+01  4.192E-01  1.643E-01
   1   13    4     8     3    1.5276E+02 -2.3616E+00   1.5512E+02  0.000E+00  0.000E+00  0.000E+00  1.01222E+03  2.844E+00  4.124E+01  4.203E+00 -1.873E-01
   1   13    3     8     4    1.5512E+02 -3.6309E+00   1.5875E+02  0.000E+00  0.000E+00  0.000E+00  1.00599E+03  2.865E+00  4.154E+01  4.233E+00 -2.859E-01
   1   13    2     8     5    1.5875E+02 -2.6266E+00   1.6138E+02  0.000E+00  0.000E+00  0.000E+00  9.99761E+02  2.886E+00  4.185E+01  4.265E+00 -2.053E-01
   1   13    1     8     6    1.6138E+02 -2.0130E+00   1.6339E+02  0.000E+00  0.000E+00  0.000E+00  9.94777E+02  2.902E+00  4.208E+01  2.573E+00 -2.608E-01
   1    8    6     9     1    2.3480E+01  0.0000E+00   2.3480E+01  0.000E+00  0.000E+00  0.000E+00  1.08253E+03  3.782E+00  4.000E+00  0.000E+00  2.261E+00
   1    8    5     9     2    2.3480E+01  0.0000E+00   2.3480E+01  0.000E+00  0.000E+00  0.000E+00  1.08203E+03  3.782E+00  4.000E+00  0.000E+00  2.261E+00



 UBDSV3 SAVING "           GW ET" ON UNIT  61 AT TIME STEP  1, STRESS PERIOD   8
 UBDSV3 SAVING "    UZF RECHARGE" ON UNIT  61 AT TIME STEP  1, STRESS PERIOD   8
 UBDSV3 SAVING " SURFACE LEAKAGE" ON UNIT  61 AT TIME STEP  1, STRESS PERIOD   8
 UBDSV3 SAVING "       HORT+DUNN" ON UNIT  61 AT TIME STEP  1, STRESS PERIOD   8
 UBDSV3 SAVING "  STORAGE CHANGE" ON UNIT  61 AT TIME STEP  1, STRESS PERIOD   8


UNSATURATED ZONE PACKAGE VOLUMETRIC BUDGET FOR  TIME STEP     1 STRESS PERIOD    8
  ------------------------------------------------------------------------------



     CUMULATIVE VOLUMES      L**3       RATES FOR THIS TIME STEP      L**3/T
     ------------------                 ------------------------

           IN:                                      IN:
           ---                                      ---
        INFILTRATION =   386661325.1455          INFILTRATION =          98.3355

          OUT:                                     OUT:
          ----                                     ----
              UZF ET =   109387491.4107                UZF ET =          60.8175
        UZF RECHARGE =       73224.0000          UZF RECHARGE =       0.0000E+00

            IN - OUT =   277200609.7348              IN - OUT =          37.5180

          STORAGE:                                 STORAGE:
          --------                                 --------
      STORAGE CHANGE =   277200704.6155        STORAGE CHANGE =          37.5180

 PERCENT DISCREPANCY IS DIFFERENCE BETWEEN IN-OUT MINUS CHANGE IN STORAGE
 DIVIDED BY THE AVERAGE OF IN AND OUT TIMES 100

 PERCENT DISCREPANCY =          -0.00     PERCENT DISCREPANCY =          -0.00






 

            AG WELLS      PERIOD    8   STEP   1
 AG WELL      1   LAYER   1   ROW     6   COL     4   RATE    -12.3347    
 AG WELL      2   LAYER   1   ROW     6   COL     5   RATE    -12.3347    
 AG WELL      3   LAYER   1   ROW     7   COL     4   RATE    -12.3347    
 AG WELL      4   LAYER   1   ROW     7   COL     5   RATE    -12.3347    
 AG WELL      5   LAYER   1   ROW     8   COL     4   RATE    -12.3347    
 AG WELL      6   LAYER   1   ROW     8   COL     5   RATE    -12.3347    
 
 

   DIVERSION SEGMENTS     PERIOD    8   STEP   1
 SEGMENT      9   RATE     23.4796    
 
 

        SW IRRIGATION     PERIOD    8   STEP   1
 SEGMENT      9   ROW     6   COL     4   RATE     3.91334    
 SEGMENT      9   ROW     6   COL     5   RATE     3.91334    
 SEGMENT      9   ROW     7   COL     4   RATE     3.91334    
 SEGMENT      9   ROW     7   COL     5   RATE     3.91334    
 SEGMENT      9   ROW     8   COL     4   RATE     3.91334    
 SEGMENT      9   ROW     8   COL     5   RATE     3.91334    
 
 

        GW IRRIGATION     PERIOD    8   STEP   1
 AG WELL      1   ROW     6   COL     4   RATE     12.3347    
 AG WELL      2   ROW     6   COL     5   RATE     12.3347    
 AG WELL      3   ROW     7   COL     4   RATE     12.3347    
 AG WELL      4   ROW     7   COL     5   RATE     12.3347    
 AG WELL      5   ROW     8   COL     4   RATE     12.3347    
 AG WELL      6   ROW     8   COL     5   RATE     12.3347    
 
1
  VOLUMETRIC BUDGET FOR AGRICULTURAL FIELDS AT  END OF TIME STEP    1, STRESS PERIOD   8
  ------------------------------------------------------------------------------

     CUMULATIVE VOLUMES      L**3       RATES FOR THIS TIME STEP      L**3/T
     ------------------                 ------------------------

           IN:                                      IN:
           ---                                      ---
               AG WELLS  =   230292880.0000                 AG WELLS  =          74.0080
      DIVERSION SEGMENTS =   142844912.0000        DIVERSION SEGMENTS =          23.4796
           GW IRRIGATION =           0.0000             GW IRRIGATION =           0.0000
           SW IRRIGATION =           0.0000             SW IRRIGATION =           0.0000
        SYSTEM LOSSES GW =           0.0000          SYSTEM LOSSES GW =           0.0000
        SYSTEM LOSSES SW =           0.0000          SYSTEM LOSSES SW =           0.0000

                TOTAL IN =   373137792.0000                  TOTAL IN =          97.4875

          OUT:                                     OUT:
          ----                                     ----
               AG WELLS  =           0.0000                 AG WELLS  =           0.0000
      DIVERSION SEGMENTS =           0.0000        DIVERSION SEGMENTS =           0.0000
           GW IRRIGATION =   230292880.0000             GW IRRIGATION =          74.0080
           SW IRRIGATION =   142847696.0000             SW IRRIGATION =          23.4801
        SYSTEM LOSSES GW =           0.0000          SYSTEM LOSSES GW =           0.0000
        SYSTEM LOSSES SW =           0.0000          SYSTEM LOSSES SW =           0.0000

               TOTAL OUT =   373140576.0000                 TOTAL OUT =          97.4880

                IN - OUT =       -2784.0000                  IN - OUT =      -4.7302E-04

     PERCENT DISCREPANCY =          -0.00         PERCENT DISCREPANCY =          -0.00



1
  VOLUMETRIC BUDGET FOR ENTIRE MODEL AT END OF TIME STEP    1, STRESS PERIOD   8
  ------------------------------------------------------------------------------

     CUMULATIVE VOLUMES      L**3       RATES FOR THIS TIME STEP      L**3/T
     ------------------                 ------------------------

           IN:                                      IN:
           ---                                      ---
             STORAGE     =   293161984.0000               STORAGE     =          73.2945
       CONSTANT HEAD     =           0.0000         CONSTANT HEAD     =           0.0000
     HEAD DEP BOUNDS     =     4592716.0000       HEAD DEP BOUNDS     =           0.2880
      STREAM LEAKAGE     =   188324864.0000        STREAM LEAKAGE     =          11.9563
        UZF RECHARGE     =       73223.9531          UZF RECHARGE     =           0.0000
               GW ET     =           0.0000                 GW ET     =           0.0000
     SURFACE LEAKAGE     =           0.0000       SURFACE LEAKAGE     =           0.0000
           AG WELLS      =           0.0000             AG WELLS      =           0.0000

                TOTAL IN =   486152768.0000                  TOTAL IN =          85.5388

          OUT:                                     OUT:
          ----                                     ----
             STORAGE     =    86351904.0000               STORAGE     =           0.5446
       CONSTANT HEAD     =           0.0000         CONSTANT HEAD     =           0.0000
     HEAD DEP BOUNDS     =     4595329.5000       HEAD DEP BOUNDS     =           0.2873
      STREAM LEAKAGE     =   164915824.0000        STREAM LEAKAGE     =          10.6989
        UZF RECHARGE     =           0.0000          UZF RECHARGE     =           0.0000
               GW ET     =           0.0000                 GW ET     =           0.0000
     SURFACE LEAKAGE     =           0.0000       SURFACE LEAKAGE     =           0.0000
           AG WELLS      =   230292880.0000             AG WELLS      =          74.0080

               TOTAL OUT =   486155936.0000                 TOTAL OUT =          85.5387

                IN - OUT =       -3168.0000                  IN - OUT =       3.8147E-05

     PERCENT DISCREPANCY =          -0.00         PERCENT DISCREPANCY =           0.00






         TIME SUMMARY AT END OF TIME STEP    1 IN STRESS PERIOD    8
                    SECONDS     MINUTES      HOURS       DAYS        YEARS
                    -----------------------------------------------------------
   TIME STEP LENGTH  87667.      1461.1      24.352      1.0147     2.77799E-03
 STRESS PERIOD TIME  87667.      1461.1      24.352      1.0147     2.77799E-03
         TOTAL TIME 1.59541E+07 2.65901E+05  4431.7      184.65     0.50555    
1
 
 SOLVING FOR HEAD 
                                                   Max.-Head-Change                         Max.-Flux-Residual
  Residual-Control   Outer-Iter.   Inner-Iter.     Column Row Layer    Maximum-Head-Change  Column Row Layer    Maximum-Flux-Residual          L2-NORM 
          0                 1           2             4    7     1       0.5118537793E-01       4    7    1         0.2688452089E+01      0.6295585999E+01
          0                 2           2             4    7     1      -0.7789332846E-01       4    7    1        -0.4182111274E+01      0.1022203140E+02
          0                 3           2             4    7     1       0.4830660534E-01       4    7    1         0.2665173768E+01      0.6523674264E+01
          0                 4           2             4    7     1      -0.3493767532E-02       4    7    1        -0.1981254311E+00      0.4850788888E+00
          0                 5           2             4    7     1      -0.1734665019E+01       5    8    1        -0.9836753775E+02      0.2409502685E+03
          0                 6           2             4    7     1       0.2138796465E-01       4    7    1         0.1246412947E+01      0.3053854114E+01
          0                 7           2             4    7     1       0.3143473054E-03       5    8    1         0.1835691527E-01      0.4500717907E-01
          0                 8           1             4    7     1       0.4616985879E-05       5    8    1         0.2696153056E-03      0.6610398733E-03

    ------------------------------------------------
       NWT REQUIRED            8 OUTER ITERATIONS 
       AND A TOTAL OF         15 INNER ITERATIONS.
    ------------------------------------------------

 NO OUTPUT CONTROL FOR STRESS PERIOD    8   TIME STEP    2
 
 SOLVING FOR HEAD 
                                                   Max.-Head-Change                         Max.-Flux-Residual
  Residual-Control   Outer-Iter.   Inner-Iter.     Column Row Layer    Maximum-Head-Change  Column Row Layer    Maximum-Flux-Residual          L2-NORM 
          0                 1           2             5    8     1       0.9320312825E-01       5    8    1         0.5081540212E+01      0.1166272997E+02
          0                 2           2             5    6     1      -0.1267378788E+00       5    8    1        -0.6987212516E+01      0.1693840280E+02
          0                 3           2             4    7     1       0.7955458281E-01       5    8    1         0.4402365425E+01      0.1076886926E+02
          0                 4           2             4    7     1      -0.1174214026E+00       5    8    1        -0.6659075914E+01      0.1631077609E+02
          0                 5           2             4    7     1       0.1447773975E-02       4    7    1         0.8437249121E-01      0.2067099575E+00
          0                 6           1             4    7     1       0.2129273596E-04       5    8    1         0.1243312389E-02      0.3048554367E-02

    ------------------------------------------------
       NWT REQUIRED            6 OUTER ITERATIONS 
       AND A TOTAL OF         11 INNER ITERATIONS.
    ------------------------------------------------

 NO OUTPUT CONTROL FOR STRESS PERIOD    8   TIME STEP    3
 
 SOLVING FOR HEAD 
                                                   Max.-Head-Change                         Max.-Flux-Residual
  Residual-Control   Outer-Iter.   Inner-Iter.     Column Row Layer    Maximum-Head-Change  Column Row Layer    Maximum-Flux-Residual          L2-NORM 
          0                 1           2             5    8     1       0.9380360424E-01       5    8    1         0.5112543481E+01      0.1179343003E+02
          0                 2           2             5    8     1      -0.8019583310E-01       5    8    1        -0.4424511331E+01      0.1068947801E+02
          0                 3           2             4    7     1       0.4057068724E-01       5    8    1         0.2251479961E+01      0.5501061321E+01
          0                 4           2             4    7     1      -0.2441782457E-01       5    8    1        -0.1385172193E+01      0.3392388295E+01
          0                 5           2             4    7     1       0.3010787913E-03       4    7    1         0.1754602739E-01      0.4299404871E-01
          0                 6           1             4    7     1       0.4428035200E-05       5    8    1         0.2586314372E-03      0.6340635859E-03

    ------------------------------------------------
       NWT REQUIRED            6 OUTER ITERATIONS 
       AND A TOTAL OF         11 INNER ITERATIONS.
    ------------------------------------------------

 NO OUTPUT CONTROL FOR STRESS PERIOD    8   TIME STEP    4
 
 SOLVING FOR HEAD 
                                                   Max.-Head-Change                         Max.-Flux-Residual
  Residual-Control   Outer-Iter.   Inner-Iter.     Column Row Layer    Maximum-Head-Change  Column Row Layer    Maximum-Flux-Residual          L2-NORM 
          0                 1           2             5    8     1       0.9128818116E-01       5    8    1         0.4971702794E+01      0.1158281791E+02
          0                 2           2             5    6     1      -0.1009537558E+00       5    8    1        -0.5566776604E+01      0.1349445128E+02
          0                 3           2             4    7     1      -0.4550772716E+00       4    7    1        -0.2442315955E+02      0.5980760117E+02
          0                 4           2             4    7     1       0.3099228922E-01       4    7    1         0.1709817309E+01      0.4187520871E+01
          0                 5           2             4    7     1      -0.1233510200E-02       4    7    1        -0.6994967576E-01      0.1713408032E+00
          0                 6           1             4    7     1       0.1522099860E-04       5    8    1         0.8871889361E-03      0.2173483588E-02

    ------------------------------------------------
       NWT REQUIRED            6 OUTER ITERATIONS 
       AND A TOTAL OF         11 INNER ITERATIONS.
    ------------------------------------------------

 OUTPUT CONTROL FOR STRESS PERIOD    8   TIME STEP    5
    PRINT BUDGET
    SAVE BUDGET
 UBDSV1 SAVING "         STORAGE" ON UNIT 102 AT TIME STEP  5, STRESS PERIOD   8
 UBDSV2 SAVING "   CONSTANT HEAD" ON UNIT 102 AT TIME STEP  5, STRESS PERIOD   8
 UBDSV1 SAVING "FLOW RIGHT FACE " ON UNIT 102 AT TIME STEP  5, STRESS PERIOD   8
 UBDSV1 SAVING "FLOW FRONT FACE " ON UNIT 102 AT TIME STEP  5, STRESS PERIOD   8

  HEAD DEP BOUNDS   PERIOD    8   STEP     5
 BOUNDARY      1   LAYER   1   ROW    13   COL     1   RATE   -0.287147    
 BOUNDARY      2   LAYER   1   ROW    14   COL     9   RATE    0.287957    



 STREAM LISTING     PERIOD      8   STEP        5

 LAYER ROW COL. STREAM  RCH.  FLOW INTO     FLOW TO   FLOW OUT OF   OVRLND.     DIRECT     STREAM       STREAM     STREAM     STREAM   STREAMBED  STREAMBED
                SEG.NO.  NO.  STRM. RCH.    AQUIFER    STRM. RCH.    RUNOFF     PRECIP       ET          HEAD       DEPTH      WIDTH   CONDCTNC.   GRADIENT

   1    1    1     1     1    2.8125E+01  2.5915E-01   2.7866E+01  0.000E+00  0.000E+00  0.000E+00  1.09427E+03  1.223E+00  1.364E+01  6.137E-02  1.408E+00
   1    2    2     1     2    2.7866E+01  4.0087E-01   2.7465E+01  0.000E+00  0.000E+00  0.000E+00  1.08928E+03  1.218E+00  1.358E+01  9.503E-02  1.406E+00
   1    3    3     1     3    2.7465E+01  3.4143E-01   2.7124E+01  0.000E+00  0.000E+00  0.000E+00  1.08363E+03  1.213E+00  1.351E+01  8.104E-02  1.404E+00
   1    3    4     1     4    2.7124E+01  3.1403E-01   2.6810E+01  0.000E+00  0.000E+00  0.000E+00  1.07862E+03  1.209E+00  1.344E+01  7.461E-02  1.403E+00
   1    4    5     2     1    2.4810E+01  3.2739E-01   2.4482E+01  0.000E+00  0.000E+00  0.000E+00  1.07313E+03  1.197E+00  1.200E+01  7.800E-02  1.399E+00
   1    5    6     2     2    2.4482E+01  2.5133E-01   2.4231E+01  0.000E+00  0.000E+00  0.000E+00  1.06770E+03  1.189E+00  1.200E+01  6.000E-02  1.396E+00
   1    6    6     2     3    2.4231E+01  2.5089E-01   2.3980E+01  0.000E+00  0.000E+00  0.000E+00  1.06297E+03  1.181E+00  1.200E+01  6.000E-02  1.394E+00
   1    7    6     2     4    2.3980E+01  2.5044E-01   2.3730E+01  0.000E+00  0.000E+00  0.000E+00  1.05825E+03  1.174E+00  1.200E+01  6.000E-02  1.391E+00
   1    8    6     2     5    2.3730E+01  2.5000E-01   2.3480E+01  0.000E+00  0.000E+00  0.000E+00  1.05353E+03  1.167E+00  1.200E+01  6.000E-02  1.389E+00
   1    3    5     3     1    2.0000E+00  2.8252E-01   1.7175E+00  0.000E+00  0.000E+00  0.000E+00  1.07555E+03  1.909E+00  9.636E+00  7.227E-02  1.955E+00
   1    3    6     3     2    1.7175E+00  2.4905E-01   1.4684E+00  0.000E+00  0.000E+00  0.000E+00  1.07264E+03  1.727E+00  8.909E+00  6.682E-02  1.864E+00
   1    3    7     3     3    1.4684E+00  1.9718E-01   1.2712E+00  0.000E+00  0.000E+00  0.000E+00  1.06987E+03  1.555E+00  8.218E+00  5.547E-02  1.777E+00
   1    4    8     3     4    1.2712E+00  2.2567E-01   1.0456E+00  0.000E+00  0.000E+00  0.000E+00  1.06682E+03  1.364E+00  7.455E+00  6.709E-02  1.682E+00
   1    5    8     3     5    1.0456E+00  1.5790E-01   8.8768E-01  0.000E+00  0.000E+00  0.000E+00  1.06362E+03  1.164E+00  6.655E+00  4.991E-02  1.582E+00
   1    6    8     3     6    8.8768E-01  5.5980E-02   8.3170E-01  0.000E+00  0.000E+00  0.000E+00  1.06158E+03  1.036E+00  6.145E+00  1.844E-02  1.518E+00
   1    5   10     4     1    1.0000E+01  9.0919E-02   9.9091E+00  0.000E+00  0.000E+00  0.000E+00  1.07836E+03  6.368E-01  1.000E+01  2.500E-02  1.212E+00
   1    5    9     4     2    9.9091E+00  1.8158E-01   9.7275E+00  0.000E+00  0.000E+00  0.000E+00  1.07154E+03  6.315E-01  1.000E+01  5.000E-02  1.211E+00
   1    6    8     4     3    9.7275E+00  1.2689E-01   9.6006E+00  0.000E+00  0.000E+00  0.000E+00  1.06381E+03  6.256E-01  1.000E+01  3.500E-02  1.209E+00
   1    6    8     5     1    1.0432E+01  2.2686E-01   1.0205E+01  0.000E+00  0.000E+00  0.000E+00  1.05868E+03  6.790E-01  1.542E+01  6.166E-02  1.226E+00
   1    7    7     5     2    1.0205E+01  2.7894E-01   9.9265E+00  0.000E+00  0.000E+00  0.000E+00  1.05417E+03  6.732E-01  1.519E+01  7.594E-02  1.224E+00
   1    8    7     5     3    9.9265E+00  1.9221E-01   9.7343E+00  0.000E+00  0.000E+00  0.000E+00  1.04992E+03  6.676E-01  1.497E+01  5.241E-02  1.223E+00
   1    8    6     5     4    9.7343E+00  1.3577E-01   9.5985E+00  0.000E+00  0.000E+00  0.000E+00  1.04691E+03  6.637E-01  1.482E+01  3.706E-02  1.221E+00
   1    9    6     6     1    9.5985E+00  2.2097E-01   9.3776E+00  0.000E+00  0.000E+00  0.000E+00  1.04341E+03  6.828E-01  1.200E+01  6.000E-02  1.228E+00
   1   10    7     6     2    9.3776E+00  2.2039E-01   9.1572E+00  0.000E+00  0.000E+00  0.000E+00  1.03885E+03  6.732E-01  1.200E+01  6.000E-02  1.224E+00
   1   11    7     6     3    9.1572E+00  2.1981E-01   8.9374E+00  0.000E+00  0.000E+00  0.000E+00  1.03430E+03  6.636E-01  1.200E+01  6.000E-02  1.221E+00
   1   12    7     6     4    8.9374E+00  2.1923E-01   8.7181E+00  0.000E+00  0.000E+00  0.000E+00  1.02974E+03  6.539E-01  1.200E+01  6.000E-02  1.218E+00
   1   13    7     6     5    8.7181E+00 -6.6154E-02   8.7843E+00  0.000E+00  0.000E+00  0.000E+00  1.02656E+03  6.504E-01  1.200E+01  2.400E-01 -9.188E-02
   1   14    9     7     1    1.5000E+02  1.3681E+00   1.4863E+02  0.000E+00  0.000E+00  0.000E+00  1.03987E+03  2.288E+00  5.529E+01  5.593E-01  8.154E-01
   1   13    8     7     2    1.4863E+02  1.9181E+00   1.4671E+02  0.000E+00  0.000E+00  0.000E+00  1.03478E+03  2.279E+00  5.526E+01  6.148E-01  1.040E+00
   1   13    7     7     3    1.4671E+02  1.5935E+00   1.4512E+02  0.000E+00  0.000E+00  0.000E+00  1.02969E+03  2.270E+00  5.521E+01  5.584E-01  9.512E-01
   1   13    6     8     1    1.5390E+02  9.4501E-01   1.5296E+02  0.000E+00  0.000E+00  0.000E+00  1.02472E+03  2.841E+00  4.119E+01  4.198E-01  7.504E-01
   1   13    5     8     2    1.5296E+02  2.0768E-01   1.5275E+02  0.000E+00  0.000E+00  0.000E+00  1.01846E+03  2.837E+00  4.113E+01  4.192E-01  1.652E-01
   1   13    4     8     3    1.5275E+02 -2.3416E+00   1.5509E+02  0.000E+00  0.000E+00  0.000E+00  1.01222E+03  2.844E+00  4.124E+01  4.203E+00 -1.857E-01
   1   13    3     8     4    1.5509E+02 -3.6145E+00   1.5871E+02  0.000E+00  0.000E+00  0.000E+00  1.00599E+03  2.865E+00  4.154E+01  4.233E+00 -2.846E-01
   1   13    2     8     5    1.5871E+02 -2.6093E+00   1.6132E+02  0.000E+00  0.000E+00  0.000E+00  9.99761E+02  2.886E+00  4.185E+01  4.264E+00 -2.040E-01
   1   13    1     8     6    1.6132E+02 -2.0065E+00   1.6332E+02  0.000E+00  0.000E+00  0.000E+00  9.94776E+02  2.901E+00  4.207E+01  2.572E+00 -2.600E-01
   1    8    6     9     1    2.3480E+01  0.0000E+00   2.3480E+01  0.000E+00  0.000E+00  0.000E+00  1.08253E+03  3.782E+00  4.000E+00  0.000E+00  2.261E+00
   1    8    5     9     2    2.3480E+01  0.0000E+00   2.3480E+01  0.000E+00  0.000E+00  0.000E+00  1.08203E+03  3.782E+00  4.000E+00  0.000E+00  2.261E+00



 UBDSV3 SAVING "           GW ET" ON UNIT  61 AT TIME STEP  5, STRESS PERIOD   8
 UBDSV3 SAVING "    UZF RECHARGE" ON UNIT  61 AT TIME STEP  5, STRESS PERIOD   8
 UBDSV3 SAVING " SURFACE LEAKAGE" ON UNIT  61 AT TIME STEP  5, STRESS PERIOD   8
 UBDSV3 SAVING "       HORT+DUNN" ON UNIT  61 AT TIME STEP  5, STRESS PERIOD   8
 UBDSV3 SAVING "  STORAGE CHANGE" ON UNIT  61 AT TIME STEP  5, STRESS PERIOD   8


UNSATURATED ZONE PACKAGE VOLUMETRIC BUDGET FOR  TIME STEP     5 STRESS PERIOD    8
  ------------------------------------------------------------------------------



     CUMULATIVE VOLUMES      L**3       RATES FOR THIS TIME STEP      L**3/T
     ------------------                 ------------------------

           IN:                                      IN:
           ---                                      ---
        INFILTRATION =   469978684.2541          INFILTRATION =         203.5487

          OUT:                                     OUT:
          ----                                     ----
              UZF ET =   130714183.6443                UZF ET =          60.8175
        UZF RECHARGE =       73224.0000          UZF RECHARGE =       0.0000E+00

            IN - OUT =   339191276.6098              IN - OUT =         142.7312

          STORAGE:                                 STORAGE:
          --------                                 --------
      STORAGE CHANGE =   339191372.4045        STORAGE CHANGE =         142.7312

 PERCENT DISCREPANCY IS DIFFERENCE BETWEEN IN-OUT MINUS CHANGE IN STORAGE
 DIVIDED BY THE AVERAGE OF IN AND OUT TIMES 100

 PERCENT DISCREPANCY =          -0.00     PERCENT DISCREPANCY =           0.00






 

            AG WELLS      PERIOD    8   STEP   5
 AG WELL      1   LAYER   1   ROW     6   COL     4   RATE    -29.8702    
 AG WELL      2   LAYER   1   ROW     6   COL     5   RATE    -29.8702    
 AG WELL      3   LAYER   1   ROW     7   COL     4   RATE    -29.8702    
 AG WELL      4   LAYER   1   ROW     7   COL     5   RATE    -29.8702    
 AG WELL      5   LAYER   1   ROW     8   COL     4   RATE    -29.8702    
 AG WELL      6   LAYER   1   ROW     8   COL     5   RATE    -29.8702    
 
 

   DIVERSION SEGMENTS     PERIOD    8   STEP   5
 SEGMENT      9   RATE     23.4796    
 
 

        SW IRRIGATION     PERIOD    8   STEP   5
 SEGMENT      9   ROW     6   COL     4   RATE     3.91334    
 SEGMENT      9   ROW     6   COL     5   RATE     3.91334    
 SEGMENT      9   ROW     7   COL     4   RATE     3.91334    
 SEGMENT      9   ROW     7   COL     5   RATE     3.91334    
 SEGMENT      9   ROW     8   COL     4   RATE     3.91334    
 SEGMENT      9   ROW     8   COL     5   RATE     3.91334    
 
 

        GW IRRIGATION     PERIOD    8   STEP   5
 AG WELL      1   ROW     6   COL     4   RATE     29.8702    
 AG WELL      2   ROW     6   COL     5   RATE     29.8702    
 AG WELL      3   ROW     7   COL     4   RATE     29.8702    
 AG WELL      4   ROW     7   COL     5   RATE     29.8702    
 AG WELL      5   ROW     8   COL     4   RATE     29.8702    
 AG WELL      6   ROW     8   COL     5   RATE     29.8702    
 
1
  VOLUMETRIC BUDGET FOR AGRICULTURAL FIELDS AT  END OF TIME STEP    5, STRESS PERIOD   8
  ------------------------------------------------------------------------------

     CUMULATIVE VOLUMES      L**3       RATES FOR THIS TIME STEP      L**3/T
     ------------------                 ------------------------

           IN:                                      IN:
           ---                                      ---
               AG WELLS  =   305079360.0000                 AG WELLS  =         179.2211
      DIVERSION SEGMENTS =   151078448.0000        DIVERSION SEGMENTS =          23.4796
           GW IRRIGATION =           0.0000             GW IRRIGATION =           0.0000
           SW IRRIGATION =           0.0000             SW IRRIGATION =           0.0000
        SYSTEM LOSSES GW =           0.0000          SYSTEM LOSSES GW =           0.0000
        SYSTEM LOSSES SW =           0.0000          SYSTEM LOSSES SW =           0.0000

                TOTAL IN =   456157824.0000                  TOTAL IN =         202.7007

          OUT:                                     OUT:
          ----                                     ----
               AG WELLS  =           0.0000                 AG WELLS  =           0.0000
      DIVERSION SEGMENTS =           0.0000        DIVERSION SEGMENTS =           0.0000
           GW IRRIGATION =   305079360.0000             GW IRRIGATION =         179.2211
           SW IRRIGATION =   151081360.0000             SW IRRIGATION =          23.4801
        SYSTEM LOSSES GW =           0.0000          SYSTEM LOSSES GW =           0.0000
        SYSTEM LOSSES SW =           0.0000          SYSTEM LOSSES SW =           0.0000

               TOTAL OUT =   456160704.0000                 TOTAL OUT =         202.7012

                IN - OUT =       -2880.0000                  IN - OUT =      -4.7302E-04

     PERCENT DISCREPANCY =          -0.00         PERCENT DISCREPANCY =          -0.00



1
  VOLUMETRIC BUDGET FOR ENTIRE MODEL AT END OF TIME STEP    5, STRESS PERIOD   8
  ------------------------------------------------------------------------------

     CUMULATIVE VOLUMES      L**3       RATES FOR THIS TIME STEP      L**3/T
     ------------------                 ------------------------

           IN:                                      IN:
           ---                                      ---
             STORAGE     =   368175808.0000               STORAGE     =         178.4324
       CONSTANT HEAD     =           0.0000         CONSTANT HEAD     =           0.0000
     HEAD DEP BOUNDS     =     4693692.5000       HEAD DEP BOUNDS     =           0.2880
      STREAM LEAKAGE     =   192518304.0000        STREAM LEAKAGE     =          11.9598
        UZF RECHARGE     =       73223.9531          UZF RECHARGE     =           0.0000
               GW ET     =           0.0000                 GW ET     =           0.0000
     SURFACE LEAKAGE     =           0.0000       SURFACE LEAKAGE     =           0.0000
           AG WELLS      =           0.0000             AG WELLS      =           0.0000

                TOTAL IN =   565460992.0000                  TOTAL IN =         190.6801

          OUT:                                     OUT:
          ----                                     ----
             STORAGE     =    87034984.0000               STORAGE     =           0.5337
       CONSTANT HEAD     =           0.0000         CONSTANT HEAD     =           0.0000
     HEAD DEP BOUNDS     =     4696035.5000       HEAD DEP BOUNDS     =           0.2871
      STREAM LEAKAGE     =   168653792.0000        STREAM LEAKAGE     =          10.6381
        UZF RECHARGE     =           0.0000          UZF RECHARGE     =           0.0000
               GW ET     =           0.0000                 GW ET     =           0.0000
     SURFACE LEAKAGE     =           0.0000       SURFACE LEAKAGE     =           0.0000
           AG WELLS      =   305079360.0000             AG WELLS      =         179.2211

               TOTAL OUT =   565464192.0000                 TOTAL OUT =         190.6801

                IN - OUT =       -3200.0000                  IN - OUT =       7.6294E-05

     PERCENT DISCREPANCY =          -0.00         PERCENT DISCREPANCY =           0.00






         TIME SUMMARY AT END OF TIME STEP    5 IN STRESS PERIOD    8
                    SECONDS     MINUTES      HOURS       DAYS        YEARS
                    -----------------------------------------------------------
   TIME STEP LENGTH  87667.      1461.1      24.352      1.0147     2.77799E-03
 STRESS PERIOD TIME 4.38333E+05  7305.6      121.76      5.0733     1.38899E-02
         TOTAL TIME 1.63048E+07 2.71746E+05  4529.1      188.71     0.51667    
1
 
 SOLVING FOR HEAD 
                                                   Max.-Head-Change                         Max.-Flux-Residual
  Residual-Control   Outer-Iter.   Inner-Iter.     Column Row Layer    Maximum-Head-Change  Column Row Layer    Maximum-Flux-Residual          L2-NORM 
          0                 1           2             5    8     1       0.1033021436E+00       5    8    1         0.5632810759E+01      0.1294766039E+02
          0                 2           2             5    8     1      -0.8112009387E-01       5    8    1        -0.4476541530E+01      0.1078745321E+02
          0                 3           2             4    7     1      -0.1784860571E+01       4    7    1        -0.9578919097E+02      0.2346129327E+03
          0                 4           2             4    7     1       0.1215416113E+00       5    8    1         0.6705922907E+01      0.1642498623E+02
          0                 5           2             4    7     1      -0.4837486930E-02       5    8    1        -0.2743938600E+00      0.6720675804E+00
          0                 6           1             4    7     1       0.5969245669E-04       5    8    1         0.3480637985E-02      0.8525226949E-02

    ------------------------------------------------
       NWT REQUIRED            6 OUTER ITERATIONS 
       AND A TOTAL OF         11 INNER ITERATIONS.
    ------------------------------------------------

 NO OUTPUT CONTROL FOR STRESS PERIOD    8   TIME STEP    6
 
 SOLVING FOR HEAD 
                                                   Max.-Head-Change                         Max.-Flux-Residual
  Residual-Control   Outer-Iter.   Inner-Iter.     Column Row Layer    Maximum-Head-Change  Column Row Layer    Maximum-Flux-Residual          L2-NORM 
          0                 1           2             5    8     1       0.1525160519E+00       5    8    1         0.8344504794E+01      0.1850098282E+02
          0                 2           2             5    8     1      -0.1325059887E+00       5    8    1        -0.7313498595E+01      0.1748993675E+02
          0                 3           2             4    7     1       0.7965579691E-01       5    8    1         0.4425205302E+01      0.1080633494E+02
          0                 4           2             4    7     1      -0.1174284712E+00       5    8    1        -0.6660019204E+01      0.1631231517E+02
          0                 5           2             4    7     1       0.1447861196E-02       4    7    1         0.8437519199E-01      0.2067269690E+00
          0                 6           1             4    7     1       0.2129401865E-04       5    8    1         0.1243478484E-02      0.3048763653E-02

    ------------------------------------------------
       NWT REQUIRED            6 OUTER ITERATIONS 
       AND A TOTAL OF         11 INNER ITERATIONS.
    ------------------------------------------------

 NO OUTPUT CONTROL FOR STRESS PERIOD    8   TIME STEP    7
 
 SOLVING FOR HEAD 
                                                   Max.-Head-Change                         Max.-Flux-Residual
  Residual-Control   Outer-Iter.   Inner-Iter.     Column Row Layer    Maximum-Head-Change  Column Row Layer    Maximum-Flux-Residual          L2-NORM 
          0                 1           2             5    8     1       0.1498806078E+00       5    8    1         0.8194761064E+01      0.1832724985E+02
          0                 2           2             5    8     1      -0.8565009105E-01       5    8    1        -0.4732723095E+01      0.1122966656E+02
          0                 3           2             4    7     1       0.4067930516E-01       5    8    1         0.2273054757E+01      0.5537362422E+01
          0                 4           2             4    7     1      -0.2442322488E-01       5    8    1        -0.1386063153E+01      0.3393874974E+01
          0                 5           2             4    7     1       0.3011453922E-03       4    8    1         0.1755018248E-01      0.4301100173E-01
          0                 6           1             4    7     1       0.4429015115E-05       5    8    1         0.2587840413E-03      0.6342630959E-03

    ------------------------------------------------
       NWT REQUIRED            6 OUTER ITERATIONS 
       AND A TOTAL OF         11 INNER ITERATIONS.
    ------------------------------------------------

 NO OUTPUT CONTROL FOR STRESS PERIOD    8   TIME STEP    8
 
 SOLVING FOR HEAD 
                                                   Max.-Head-Change                         Max.-Flux-Residual
  Residual-Control   Outer-Iter.   Inner-Iter.     Column Row Layer    Maximum-Head-Change  Column Row Layer    Maximum-Flux-Residual          L2-NORM 
          0                 1           2             5    8     1       0.1443528345E+00       5    8    1         0.7885763477E+01      0.1782216735E+02
          0                 2           2             5    8     1      -0.1061141715E+00       5    8    1        -0.5858173175E+01      0.1401036423E+02
          0                 3           2             4    7     1      -0.4549883061E+00       4    7    1        -0.2441745117E+02      0.5977281338E+02
          0                 4           2             4    7     1       0.3098622466E-01       4    7    1         0.1709418303E+01      0.4185090467E+01
          0                 5           2             4    7     1      -0.1233268853E-02       4    7    1        -0.6993339267E-01      0.1712419752E+00
          0                 6           1             4    7     1       0.1521802010E-04       4    7    1         0.8869433182E-03      0.2172242134E-02

    ------------------------------------------------
       NWT REQUIRED            6 OUTER ITERATIONS 
       AND A TOTAL OF         11 INNER ITERATIONS.
    ------------------------------------------------

 NO OUTPUT CONTROL FOR STRESS PERIOD    8   TIME STEP    9
 
 SOLVING FOR HEAD 
                                                   Max.-Head-Change                         Max.-Flux-Residual
  Residual-Control   Outer-Iter.   Inner-Iter.     Column Row Layer    Maximum-Head-Change  Column Row Layer    Maximum-Flux-Residual          L2-NORM 
          0                 1           2             5    8     1       0.1535676012E+00       5    8    1         0.8390475838E+01      0.1895459178E+02
          0                 2           2             5    8     1      -0.8600959651E-01       5    8    1        -0.4752298374E+01      0.1129174259E+02
          0                 3           2             4    7     1      -0.1784836058E+01       4    7    1        -0.9578325311E+02      0.2345792954E+03
          0                 4           2             4    7     1       0.1215399969E+00       4    7    1         0.6704743080E+01      0.1642263906E+02
          0                 5           2             4    7     1      -0.4837422766E-02       5    8    1        -0.2743244460E+00      0.6719722889E+00
          0                 6           1             4    7     1       0.5969166474E-04       5    8    1         0.3479762825E-02      0.8524031599E-02

    ------------------------------------------------
       NWT REQUIRED            6 OUTER ITERATIONS 
       AND A TOTAL OF         11 INNER ITERATIONS.
    ------------------------------------------------

 OUTPUT CONTROL FOR STRESS PERIOD    8   TIME STEP   10
    PRINT BUDGET
    SAVE BUDGET
 UBDSV1 SAVING "         STORAGE" ON UNIT 102 AT TIME STEP 10, STRESS PERIOD   8
 UBDSV2 SAVING "   CONSTANT HEAD" ON UNIT 102 AT TIME STEP 10, STRESS PERIOD   8
 UBDSV1 SAVING "FLOW RIGHT FACE " ON UNIT 102 AT TIME STEP 10, STRESS PERIOD   8
 UBDSV1 SAVING "FLOW FRONT FACE " ON UNIT 102 AT TIME STEP 10, STRESS PERIOD   8

  HEAD DEP BOUNDS   PERIOD    8   STEP    10
 BOUNDARY      1   LAYER   1   ROW    13   COL     1   RATE   -0.287033    
 BOUNDARY      2   LAYER   1   ROW    14   COL     9   RATE    0.287961    



 STREAM LISTING     PERIOD      8   STEP       10

 LAYER ROW COL. STREAM  RCH.  FLOW INTO     FLOW TO   FLOW OUT OF   OVRLND.     DIRECT     STREAM       STREAM     STREAM     STREAM   STREAMBED  STREAMBED
                SEG.NO.  NO.  STRM. RCH.    AQUIFER    STRM. RCH.    RUNOFF     PRECIP       ET          HEAD       DEPTH      WIDTH   CONDCTNC.   GRADIENT

   1    1    1     1     1    2.8125E+01  2.5915E-01   2.7866E+01  0.000E+00  0.000E+00  0.000E+00  1.09427E+03  1.223E+00  1.364E+01  6.137E-02  1.408E+00
   1    2    2     1     2    2.7866E+01  4.0087E-01   2.7465E+01  0.000E+00  0.000E+00  0.000E+00  1.08928E+03  1.218E+00  1.358E+01  9.503E-02  1.406E+00
   1    3    3     1     3    2.7465E+01  3.4143E-01   2.7124E+01  0.000E+00  0.000E+00  0.000E+00  1.08363E+03  1.213E+00  1.351E+01  8.104E-02  1.404E+00
   1    3    4     1     4    2.7124E+01  3.1403E-01   2.6810E+01  0.000E+00  0.000E+00  0.000E+00  1.07862E+03  1.209E+00  1.344E+01  7.461E-02  1.403E+00
   1    4    5     2     1    2.4810E+01  3.2739E-01   2.4482E+01  0.000E+00  0.000E+00  0.000E+00  1.07313E+03  1.197E+00  1.200E+01  7.800E-02  1.399E+00
   1    5    6     2     2    2.4482E+01  2.5133E-01   2.4231E+01  0.000E+00  0.000E+00  0.000E+00  1.06770E+03  1.189E+00  1.200E+01  6.000E-02  1.396E+00
   1    6    6     2     3    2.4231E+01  2.5089E-01   2.3980E+01  0.000E+00  0.000E+00  0.000E+00  1.06297E+03  1.181E+00  1.200E+01  6.000E-02  1.394E+00
   1    7    6     2     4    2.3980E+01  2.5044E-01   2.3730E+01  0.000E+00  0.000E+00  0.000E+00  1.05825E+03  1.174E+00  1.200E+01  6.000E-02  1.391E+00
   1    8    6     2     5    2.3730E+01  2.5000E-01   2.3480E+01  0.000E+00  0.000E+00  0.000E+00  1.05353E+03  1.167E+00  1.200E+01  6.000E-02  1.389E+00
   1    3    5     3     1    2.0000E+00  2.8252E-01   1.7175E+00  0.000E+00  0.000E+00  0.000E+00  1.07555E+03  1.909E+00  9.636E+00  7.227E-02  1.955E+00
   1    3    6     3     2    1.7175E+00  2.4905E-01   1.4684E+00  0.000E+00  0.000E+00  0.000E+00  1.07264E+03  1.727E+00  8.909E+00  6.682E-02  1.864E+00
   1    3    7     3     3    1.4684E+00  1.9718E-01   1.2712E+00  0.000E+00  0.000E+00  0.000E+00  1.06987E+03  1.555E+00  8.218E+00  5.547E-02  1.777E+00
   1    4    8     3     4    1.2712E+00  2.2567E-01   1.0456E+00  0.000E+00  0.000E+00  0.000E+00  1.06682E+03  1.364E+00  7.455E+00  6.709E-02  1.682E+00
   1    5    8     3     5    1.0456E+00  1.5790E-01   8.8768E-01  0.000E+00  0.000E+00  0.000E+00  1.06362E+03  1.164E+00  6.655E+00  4.991E-02  1.582E+00
   1    6    8     3     6    8.8768E-01  5.5980E-02   8.3170E-01  0.000E+00  0.000E+00  0.000E+00  1.06158E+03  1.036E+00  6.145E+00  1.844E-02  1.518E+00
   1    5   10     4     1    1.0000E+01  9.0919E-02   9.9091E+00  0.000E+00  0.000E+00  0.000E+00  1.07836E+03  6.368E-01  1.000E+01  2.500E-02  1.212E+00
   1    5    9     4     2    9.9091E+00  1.8158E-01   9.7275E+00  0.000E+00  0.000E+00  0.000E+00  1.07154E+03  6.315E-01  1.000E+01  5.000E-02  1.211E+00
   1    6    8     4     3    9.7275E+00  1.2689E-01   9.6006E+00  0.000E+00  0.000E+00  0.000E+00  1.06381E+03  6.256E-01  1.000E+01  3.500E-02  1.209E+00
   1    6    8     5     1    1.0432E+01  2.2686E-01   1.0205E+01  0.000E+00  0.000E+00  0.000E+00  1.05868E+03  6.790E-01  1.542E+01  6.166E-02  1.226E+00
   1    7    7     5     2    1.0205E+01  2.7894E-01   9.9265E+00  0.000E+00  0.000E+00  0.000E+00  1.05417E+03  6.732E-01  1.519E+01  7.594E-02  1.224E+00
   1    8    7     5     3    9.9265E+00  1.9221E-01   9.7343E+00  0.000E+00  0.000E+00  0.000E+00  1.04992E+03  6.676E-01  1.497E+01  5.241E-02  1.223E+00
   1    8    6     5     4    9.7343E+00  1.3577E-01   9.5985E+00  0.000E+00  0.000E+00  0.000E+00  1.04691E+03  6.637E-01  1.482E+01  3.706E-02  1.221E+00
   1    9    6     6     1    9.5985E+00  2.2097E-01   9.3776E+00  0.000E+00  0.000E+00  0.000E+00  1.04341E+03  6.828E-01  1.200E+01  6.000E-02  1.228E+00
   1   10    7     6     2    9.3776E+00  2.2039E-01   9.1572E+00  0.000E+00  0.000E+00  0.000E+00  1.03885E+03  6.732E-01  1.200E+01  6.000E-02  1.224E+00
   1   11    7     6     3    9.1572E+00  2.1981E-01   8.9374E+00  0.000E+00  0.000E+00  0.000E+00  1.03430E+03  6.636E-01  1.200E+01  6.000E-02  1.221E+00
   1   12    7     6     4    8.9374E+00  2.1923E-01   8.7181E+00  0.000E+00  0.000E+00  0.000E+00  1.02974E+03  6.539E-01  1.200E+01  6.000E-02  1.218E+00
   1   13    7     6     5    8.7181E+00 -6.5493E-02   8.7836E+00  0.000E+00  0.000E+00  0.000E+00  1.02656E+03  6.504E-01  1.200E+01  2.400E-01 -9.096E-02
   1   14    9     7     1    1.5000E+02  1.3682E+00   1.4863E+02  0.000E+00  0.000E+00  0.000E+00  1.03987E+03  2.288E+00  5.529E+01  5.593E-01  8.154E-01
   1   13    8     7     2    1.4863E+02  1.9183E+00   1.4671E+02  0.000E+00  0.000E+00  0.000E+00  1.03478E+03  2.279E+00  5.526E+01  6.148E-01  1.040E+00
   1   13    7     7     3    1.4671E+02  1.5951E+00   1.4512E+02  0.000E+00  0.000E+00  0.000E+00  1.02969E+03  2.270E+00  5.521E+01  5.584E-01  9.522E-01
   1   13    6     8     1    1.5390E+02  9.4618E-01   1.5296E+02  0.000E+00  0.000E+00  0.000E+00  1.02472E+03  2.841E+00  4.119E+01  4.198E-01  7.514E-01
   1   13    5     8     2    1.5296E+02  2.0902E-01   1.5275E+02  0.000E+00  0.000E+00  0.000E+00  1.01846E+03  2.837E+00  4.113E+01  4.192E-01  1.662E-01
   1   13    4     8     3    1.5275E+02 -2.3238E+00   1.5507E+02  0.000E+00  0.000E+00  0.000E+00  1.01222E+03  2.844E+00  4.124E+01  4.203E+00 -1.843E-01
   1   13    3     8     4    1.5507E+02 -3.5996E+00   1.5867E+02  0.000E+00  0.000E+00  0.000E+00  1.00599E+03  2.865E+00  4.154E+01  4.233E+00 -2.835E-01
   1   13    2     8     5    1.5867E+02 -2.5937E+00   1.6126E+02  0.000E+00  0.000E+00  0.000E+00  9.99761E+02  2.886E+00  4.184E+01  4.264E+00 -2.028E-01
   1   13    1     8     6    1.6126E+02 -1.9995E+00   1.6326E+02  0.000E+00  0.000E+00  0.000E+00  9.94776E+02  2.901E+00  4.207E+01  2.572E+00 -2.591E-01
   1    8    6     9     1    2.3480E+01  0.0000E+00   2.3480E+01  0.000E+00  0.000E+00  0.000E+00  1.08253E+03  3.782E+00  4.000E+00  0.000E+00  2.261E+00
   1    8    5     9     2    2.3480E+01  0.0000E+00   2.3480E+01  0.000E+00  0.000E+00  0.000E+00  1.08203E+03  3.782E+00  4.000E+00  0.000E+00  2.261E+00



 UBDSV3 SAVING "           GW ET" ON UNIT  61 AT TIME STEP 10, STRESS PERIOD   8
 UBDSV3 SAVING "    UZF RECHARGE" ON UNIT  61 AT TIME STEP 10, STRESS PERIOD   8
 UBDSV3 SAVING " SURFACE LEAKAGE" ON UNIT  61 AT TIME STEP 10, STRESS PERIOD   8
 UBDSV3 SAVING "       HORT+DUNN" ON UNIT  61 AT TIME STEP 10, STRESS PERIOD   8
 UBDSV3 SAVING "  STORAGE CHANGE" ON UNIT  61 AT TIME STEP 10, STRESS PERIOD   8


UNSATURATED ZONE PACKAGE VOLUMETRIC BUDGET FOR  TIME STEP    10 STRESS PERIOD    8
  ------------------------------------------------------------------------------



     CUMULATIVE VOLUMES      L**3       RATES FOR THIS TIME STEP      L**3/T
     ------------------                 ------------------------

           IN:                                      IN:
           ---                                      ---
        INFILTRATION =   608028754.8585          INFILTRATION =         624.3275

          OUT:                                     OUT:
          ----                                     ----
              UZF ET =   157372543.1237                UZF ET =          60.8175
        UZF RECHARGE =       73224.0000          UZF RECHARGE =       0.0000E+00

            IN - OUT =   450582987.7348              IN - OUT =         563.5100

          STORAGE:                                 STORAGE:
          --------                                 --------
      STORAGE CHANGE =   450583086.3799        STORAGE CHANGE =         563.5100

 PERCENT DISCREPANCY IS DIFFERENCE BETWEEN IN-OUT MINUS CHANGE IN STORAGE
 DIVIDED BY THE AVERAGE OF IN AND OUT TIMES 100

 PERCENT DISCREPANCY =          -0.00     PERCENT DISCREPANCY =          -0.00






 

            AG WELLS      PERIOD    8   STEP  10
 AG WELL      1   LAYER   1   ROW     6   COL     4   RATE    -100.000    
 AG WELL      2   LAYER   1   ROW     6   COL     5   RATE    -100.000    
 AG WELL      3   LAYER   1   ROW     7   COL     4   RATE    -100.000    
 AG WELL      4   LAYER   1   ROW     7   COL     5   RATE    -100.000    
 AG WELL      5   LAYER   1   ROW     8   COL     4   RATE    -100.000    
 AG WELL      6   LAYER   1   ROW     8   COL     5   RATE    -100.000    
 
 

   DIVERSION SEGMENTS     PERIOD    8   STEP  10
 SEGMENT      9   RATE     23.4796    
 
 

        SW IRRIGATION     PERIOD    8   STEP  10
 SEGMENT      9   ROW     6   COL     4   RATE     3.91334    
 SEGMENT      9   ROW     6   COL     5   RATE     3.91334    
 SEGMENT      9   ROW     7   COL     4   RATE     3.91334    
 SEGMENT      9   ROW     7   COL     5   RATE     3.91334    
 SEGMENT      9   ROW     8   COL     4   RATE     3.91334    
 SEGMENT      9   ROW     8   COL     5   RATE     3.91334    
 
 

        GW IRRIGATION     PERIOD    8   STEP  10
 AG WELL      1   ROW     6   COL     4   RATE     100.000    
 AG WELL      2   ROW     6   COL     5   RATE     100.000    
 AG WELL      3   ROW     7   COL     4   RATE     100.000    
 AG WELL      4   ROW     7   COL     5   RATE     100.000    
 AG WELL      5   ROW     8   COL     4   RATE     100.000    
 AG WELL      6   ROW     8   COL     5   RATE     100.000    
 
1
  VOLUMETRIC BUDGET FOR AGRICULTURAL FIELDS AT  END OF TIME STEP   10, STRESS PERIOD   8
  ------------------------------------------------------------------------------

     CUMULATIVE VOLUMES      L**3       RATES FOR THIS TIME STEP      L**3/T
     ------------------                 ------------------------

           IN:                                      IN:
           ---                                      ---
               AG WELLS  =   432465856.0000                 AG WELLS  =         600.0000
      DIVERSION SEGMENTS =   161370368.0000        DIVERSION SEGMENTS =          23.4796
           GW IRRIGATION =           0.0000             GW IRRIGATION =           0.0000
           SW IRRIGATION =           0.0000             SW IRRIGATION =           0.0000
        SYSTEM LOSSES GW =           0.0000          SYSTEM LOSSES GW =           0.0000
        SYSTEM LOSSES SW =           0.0000          SYSTEM LOSSES SW =           0.0000

                TOTAL IN =   593836224.0000                  TOTAL IN =         623.4796

          OUT:                                     OUT:
          ----                                     ----
               AG WELLS  =           0.0000                 AG WELLS  =           0.0000
      DIVERSION SEGMENTS =           0.0000        DIVERSION SEGMENTS =           0.0000
           GW IRRIGATION =   432465856.0000             GW IRRIGATION =         600.0000
           SW IRRIGATION =   161373440.0000             SW IRRIGATION =          23.4801
        SYSTEM LOSSES GW =           0.0000          SYSTEM LOSSES GW =           0.0000
        SYSTEM LOSSES SW =           0.0000          SYSTEM LOSSES SW =           0.0000

               TOTAL OUT =   593839296.0000                 TOTAL OUT =         623.4800

                IN - OUT =       -3072.0000                  IN - OUT =      -4.2725E-04

     PERCENT DISCREPANCY =          -0.00         PERCENT DISCREPANCY =          -0.00



1
  VOLUMETRIC BUDGET FOR ENTIRE MODEL AT END OF TIME STEP   10, STRESS PERIOD   8
  ------------------------------------------------------------------------------

     CUMULATIVE VOLUMES      L**3       RATES FOR THIS TIME STEP      L**3/T
     ------------------                 ------------------------

           IN:                                      IN:
           ---                                      ---
             STORAGE     =   496754944.0000               STORAGE     =         599.1370
       CONSTANT HEAD     =           0.0000         CONSTANT HEAD     =           0.0000
     HEAD DEP BOUNDS     =     4819915.0000       HEAD DEP BOUNDS     =           0.2880
      STREAM LEAKAGE     =   197761808.0000        STREAM LEAKAGE     =          11.9641
        UZF RECHARGE     =       73223.9531          UZF RECHARGE     =           0.0000
               GW ET     =           0.0000                 GW ET     =           0.0000
     SURFACE LEAKAGE     =           0.0000       SURFACE LEAKAGE     =           0.0000
           AG WELLS      =           0.0000             AG WELLS      =           0.0000

                TOTAL IN =   699409856.0000                  TOTAL IN =         611.3891

          OUT:                                     OUT:
          ----                                     ----
             STORAGE     =    88823792.0000               STORAGE     =           0.5197
       CONSTANT HEAD     =           0.0000         CONSTANT HEAD     =           0.0000
     HEAD DEP BOUNDS     =     4821870.5000       HEAD DEP BOUNDS     =           0.2870
      STREAM LEAKAGE     =   173301440.0000        STREAM LEAKAGE     =          10.5821
        UZF RECHARGE     =           0.0000          UZF RECHARGE     =           0.0000
               GW ET     =           0.0000                 GW ET     =           0.0000
     SURFACE LEAKAGE     =           0.0000       SURFACE LEAKAGE     =           0.0000
           AG WELLS      =   432465856.0000             AG WELLS      =         600.0000

               TOTAL OUT =   699412992.0000                 TOTAL OUT =         611.3888

                IN - OUT =       -3136.0000                  IN - OUT =       3.0518E-04

     PERCENT DISCREPANCY =          -0.00         PERCENT DISCREPANCY =           0.00






         TIME SUMMARY AT END OF TIME STEP   10 IN STRESS PERIOD    8
                    SECONDS     MINUTES      HOURS       DAYS        YEARS
                    -----------------------------------------------------------
   TIME STEP LENGTH  87667.      1461.1      24.352      1.0147     2.77799E-03
 STRESS PERIOD TIME 8.76667E+05  14611.      243.52      10.147     2.77799E-02
         TOTAL TIME 1.67431E+07 2.79052E+05  4650.9      193.79     0.53056    
1
 
 SOLVING FOR HEAD 
                                                   Max.-Head-Change                         Max.-Flux-Residual
  Residual-Control   Outer-Iter.   Inner-Iter.     Column Row Layer    Maximum-Head-Change  Column Row Layer    Maximum-Flux-Residual          L2-NORM 
          0                 1           2             5    8     1       0.2001630220E+00       5    8    1         0.1095686070E+02      0.2431437921E+02
          0                 2           2             5    8     1      -0.1371420425E+00       5    8    1        -0.7574720193E+01      0.1797592302E+02
          0                 3           2             4    7     1       0.7977463100E-01       5    8    1         0.4443490858E+01      0.1083903344E+02
          0                 4           2             4    7     1      -0.1174391567E+00       5    8    1        -0.6660773916E+01      0.1631365557E+02
          0                 5           2             4    7     1       0.1447992986E-02       4    7    1         0.8437840589E-01      0.2067419725E+00
          0                 6           1             4    7     1       0.2129595698E-04       5    8    1         0.1243612371E-02      0.3048948796E-02

    ------------------------------------------------
       NWT REQUIRED            6 OUTER ITERATIONS 
       AND A TOTAL OF         11 INNER ITERATIONS.
    ------------------------------------------------

 NO OUTPUT CONTROL FOR STRESS PERIOD    8   TIME STEP   11
 
 SOLVING FOR HEAD 
                                                   Max.-Head-Change                         Max.-Flux-Residual
  Residual-Control   Outer-Iter.   Inner-Iter.     Column Row Layer    Maximum-Head-Change  Column Row Layer    Maximum-Flux-Residual          L2-NORM 
          0                 1           2             5    8     1       0.1950783138E+00       5    8    1         0.1067062276E+02      0.2389452389E+02
          0                 2           2             5    8     1      -0.9004787214E-01       5    8    1        -0.4980295940E+01      0.1170788253E+02
          0                 3           2             4    7     1       0.4079481441E-01       5    8    1         0.2290333459E+01      0.5569013386E+01
          0                 4           2             4    7     1      -0.2442859398E-01       5    8    1        -0.1386775073E+01      0.3395163813E+01
          0                 5           2             4    7     1       0.3012116044E-03       5    6    1         0.1755800430E-01      0.4302594878E-01
          0                 6           1             4    7     1       0.4429988758E-05       5    8    1         0.2589067346E-03      0.6344442789E-03

    ------------------------------------------------
       NWT REQUIRED            6 OUTER ITERATIONS 
       AND A TOTAL OF         11 INNER ITERATIONS.
    ------------------------------------------------

 NO OUTPUT CONTROL FOR STRESS PERIOD    8   TIME STEP   12
 
 SOLVING FOR HEAD 
                                                   Max.-Head-Change                         Max.-Flux-Residual
  Residual-Control   Outer-Iter.   Inner-Iter.     Column Row Layer    Maximum-Head-Change  Column Row Layer    Maximum-Flux-Residual          L2-NORM 
          0                 1           2             5    8     1       0.1872634531E+00       5    8    1         0.1023433420E+02      0.2315723041E+02
          0                 2           2             5    8     1      -0.1102902324E+00       5    8    1        -0.6093071678E+01      0.1446668976E+02
          0                 3           2             4    7     1      -0.4548254691E+00       4    7    1        -0.2440802042E+02      0.5973513134E+02
          0                 4           2             4    7     1       0.3097513068E-01       4    7    1         0.1708758698E+01      0.4182455932E+01
          0                 5           2             4    7     1      -0.1232827326E-02       4    7    1        -0.6990644460E-01      0.1711346509E+00
          0                 6           1             4    7     1       0.1521257221E-04       4    7    1         0.8866019818E-03      0.2170890191E-02

    ------------------------------------------------
       NWT REQUIRED            6 OUTER ITERATIONS 
       AND A TOTAL OF         11 INNER ITERATIONS.
    ------------------------------------------------

 NO OUTPUT CONTROL FOR STRESS PERIOD    8   TIME STEP   13
 
 SOLVING FOR HEAD 
                                                   Max.-Head-Change                         Max.-Flux-Residual
  Residual-Control   Outer-Iter.   Inner-Iter.     Column Row Layer    Maximum-Head-Change  Column Row Layer    Maximum-Flux-Residual          L2-NORM 
          0                 1           2             5    8     1       0.1943391896E+00       5    8    1         0.1062003613E+02      0.2407819764E+02
          0                 2           2             5    8     1      -0.8997540376E-01       5    8    1        -0.4975190273E+01      0.1173797178E+02
          0                 3           2             4    7     1      -0.1784777125E+01       4    7    1        -0.9577668836E+02      0.2345499594E+03
          0                 4           2             4    7     1       0.1215359638E+00       4    7    1         0.6704283450E+01      0.1642059173E+02
          0                 5           2             4    7     1      -0.4837262335E-02       5    8    1        -0.2742805422E+00      0.6718890000E+00
          0                 6           1             4    7     1       0.5968968497E-04       5    8    1         0.3479209794E-02      0.8522984019E-02

    ------------------------------------------------
       NWT REQUIRED            6 OUTER ITERATIONS 
       AND A TOTAL OF         11 INNER ITERATIONS.
    ------------------------------------------------

 NO OUTPUT CONTROL FOR STRESS PERIOD    8   TIME STEP   14
 
 SOLVING FOR HEAD 
                                                   Max.-Head-Change                         Max.-Flux-Residual
  Residual-Control   Outer-Iter.   Inner-Iter.     Column Row Layer    Maximum-Head-Change  Column Row Layer    Maximum-Flux-Residual          L2-NORM 
          0                 1           2             5    8     1       0.2389306813E+00       5    8    1         0.1307496883E+02      0.2923582726E+02
          0                 2           2             5    8     1      -0.1409129222E+00       5    8    1        -0.7786430440E+01      0.1840382895E+02
          0                 3           2             4    7     1       0.7990161050E-01       5    8    1         0.4458259001E+01      0.1086760691E+02
          0                 4           2             4    7     1      -0.1174471038E+00       5    8    1        -0.6661298457E+01      0.1631461799E+02
          0                 5           2             4    7     1       0.1448090989E-02       4    7    1         0.8438083581E-01      0.2067525785E+00
          0                 6           1             4    7     1       0.2129739795E-04       5    8    1         0.1243704556E-02      0.3049073624E-02

    ------------------------------------------------
       NWT REQUIRED            6 OUTER ITERATIONS 
       AND A TOTAL OF         11 INNER ITERATIONS.
    ------------------------------------------------

 OUTPUT CONTROL FOR STRESS PERIOD    8   TIME STEP   15
    PRINT BUDGET
    SAVE BUDGET
 UBDSV1 SAVING "         STORAGE" ON UNIT 102 AT TIME STEP 15, STRESS PERIOD   8
 UBDSV2 SAVING "   CONSTANT HEAD" ON UNIT 102 AT TIME STEP 15, STRESS PERIOD   8
 UBDSV1 SAVING "FLOW RIGHT FACE " ON UNIT 102 AT TIME STEP 15, STRESS PERIOD   8
 UBDSV1 SAVING "FLOW FRONT FACE " ON UNIT 102 AT TIME STEP 15, STRESS PERIOD   8

  HEAD DEP BOUNDS   PERIOD    8   STEP    15
 BOUNDARY      1   LAYER   1   ROW    13   COL     1   RATE   -0.286940    
 BOUNDARY      2   LAYER   1   ROW    14   COL     9   RATE    0.287964    



 STREAM LISTING     PERIOD      8   STEP       15

 LAYER ROW COL. STREAM  RCH.  FLOW INTO     FLOW TO   FLOW OUT OF   OVRLND.     DIRECT     STREAM       STREAM     STREAM     STREAM   STREAMBED  STREAMBED
                SEG.NO.  NO.  STRM. RCH.    AQUIFER    STRM. RCH.    RUNOFF     PRECIP       ET          HEAD       DEPTH      WIDTH   CONDCTNC.   GRADIENT

   1    1    1     1     1    2.8125E+01  2.5915E-01   2.7866E+01  0.000E+00  0.000E+00  0.000E+00  1.09427E+03  1.223E+00  1.364E+01  6.137E-02  1.408E+00
   1    2    2     1     2    2.7866E+01  4.0087E-01   2.7465E+01  0.000E+00  0.000E+00  0.000E+00  1.08928E+03  1.218E+00  1.358E+01  9.503E-02  1.406E+00
   1    3    3     1     3    2.7465E+01  3.4142E-01   2.7123E+01  0.000E+00  0.000E+00  0.000E+00  1.08363E+03  1.213E+00  1.351E+01  8.103E-02  1.404E+00
   1    3    4     1     4    2.7123E+01  3.1403E-01   2.6809E+01  0.000E+00  0.000E+00  0.000E+00  1.07862E+03  1.209E+00  1.344E+01  7.461E-02  1.403E+00
   1    4    5     2     1    2.4809E+01  3.2739E-01   2.4482E+01  0.000E+00  0.000E+00  0.000E+00  1.07313E+03  1.197E+00  1.200E+01  7.800E-02  1.399E+00
   1    5    6     2     2    2.4482E+01  2.5133E-01   2.4231E+01  0.000E+00  0.000E+00  0.000E+00  1.06770E+03  1.189E+00  1.200E+01  6.000E-02  1.396E+00
   1    6    6     2     3    2.4231E+01  2.5089E-01   2.3980E+01  0.000E+00  0.000E+00  0.000E+00  1.06297E+03  1.181E+00  1.200E+01  6.000E-02  1.394E+00
   1    7    6     2     4    2.3980E+01  2.5044E-01   2.3729E+01  0.000E+00  0.000E+00  0.000E+00  1.05825E+03  1.174E+00  1.200E+01  6.000E-02  1.391E+00
   1    8    6     2     5    2.3729E+01  2.5000E-01   2.3479E+01  0.000E+00  0.000E+00  0.000E+00  1.05353E+03  1.167E+00  1.200E+01  6.000E-02  1.389E+00
   1    3    5     3     1    2.0000E+00  2.8252E-01   1.7175E+00  0.000E+00  0.000E+00  0.000E+00  1.07555E+03  1.909E+00  9.636E+00  7.227E-02  1.955E+00
   1    3    6     3     2    1.7175E+00  2.4905E-01   1.4684E+00  0.000E+00  0.000E+00  0.000E+00  1.07264E+03  1.727E+00  8.909E+00  6.682E-02  1.864E+00
   1    3    7     3     3    1.4684E+00  1.9718E-01   1.2712E+00  0.000E+00  0.000E+00  0.000E+00  1.06987E+03  1.555E+00  8.218E+00  5.547E-02  1.777E+00
   1    4    8     3     4    1.2712E+00  2.2567E-01   1.0456E+00  0.000E+00  0.000E+00  0.000E+00  1.06682E+03  1.364E+00  7.455E+00  6.709E-02  1.682E+00
   1    5    8     3     5    1.0456E+00  1.5790E-01   8.8768E-01  0.000E+00  0.000E+00  0.000E+00  1.06362E+03  1.164E+00  6.655E+00  4.991E-02  1.582E+00
   1    6    8     3     6    8.8768E-01  5.5980E-02   8.3170E-01  0.000E+00  0.000E+00  0.000E+00  1.06158E+03  1.036E+00  6.145E+00  1.844E-02  1.518E+00
   1    5   10     4     1    1.0000E+01  9.0919E-02   9.9091E+00  0.000E+00  0.000E+00  0.000E+00  1.07836E+03  6.368E-01  1.000E+01  2.500E-02  1.212E+00
   1    5    9     4     2    9.9091E+00  1.8158E-01   9.7275E+00  0.000E+00  0.000E+00  0.000E+00  1.07154E+03  6.315E-01  1.000E+01  5.000E-02  1.211E+00
   1    6    8     4     3    9.7275E+00  1.2689E-01   9.6006E+00  0.000E+00  0.000E+00  0.000E+00  1.06381E+03  6.256E-01  1.000E+01  3.500E-02  1.209E+00
   1    6    8     5     1    1.0432E+01  2.2686E-01   1.0205E+01  0.000E+00  0.000E+00  0.000E+00  1.05868E+03  6.790E-01  1.542E+01  6.166E-02  1.226E+00
   1    7    7     5     2    1.0205E+01  2.7894E-01   9.9265E+00  0.000E+00  0.000E+00  0.000E+00  1.05417E+03  6.732E-01  1.519E+01  7.594E-02  1.224E+00
   1    8    7     5     3    9.9265E+00  1.9221E-01   9.7343E+00  0.000E+00  0.000E+00  0.000E+00  1.04992E+03  6.676E-01  1.497E+01  5.241E-02  1.223E+00
   1    8    6     5     4    9.7343E+00  1.3577E-01   9.5985E+00  0.000E+00  0.000E+00  0.000E+00  1.04691E+03  6.637E-01  1.482E+01  3.706E-02  1.221E+00
   1    9    6     6     1    9.5985E+00  2.2097E-01   9.3776E+00  0.000E+00  0.000E+00  0.000E+00  1.04341E+03  6.828E-01  1.200E+01  6.000E-02  1.228E+00
   1   10    7     6     2    9.3776E+00  2.2039E-01   9.1572E+00  0.000E+00  0.000E+00  0.000E+00  1.03885E+03  6.732E-01  1.200E+01  6.000E-02  1.224E+00
   1   11    7     6     3    9.1572E+00  2.1981E-01   8.9374E+00  0.000E+00  0.000E+00  0.000E+00  1.03430E+03  6.636E-01  1.200E+01  6.000E-02  1.221E+00
   1   12    7     6     4    8.9374E+00  2.1923E-01   8.7181E+00  0.000E+00  0.000E+00  0.000E+00  1.02974E+03  6.539E-01  1.200E+01  6.000E-02  1.218E+00
   1   13    7     6     5    8.7181E+00 -6.4897E-02   8.7830E+00  0.000E+00  0.000E+00  0.000E+00  1.02656E+03  6.504E-01  1.200E+01  2.400E-01 -9.013E-02
   1   14    9     7     1    1.5000E+02  1.3682E+00   1.4863E+02  0.000E+00  0.000E+00  0.000E+00  1.03987E+03  2.288E+00  5.529E+01  5.593E-01  8.154E-01
   1   13    8     7     2    1.4863E+02  1.9185E+00   1.4671E+02  0.000E+00  0.000E+00  0.000E+00  1.03478E+03  2.279E+00  5.526E+01  6.148E-01  1.040E+00
   1   13    7     7     3    1.4671E+02  1.5964E+00   1.4512E+02  0.000E+00  0.000E+00  0.000E+00  1.02969E+03  2.270E+00  5.521E+01  5.584E-01  9.530E-01
   1   13    6     8     1    1.5390E+02  9.4735E-01   1.5295E+02  0.000E+00  0.000E+00  0.000E+00  1.02472E+03  2.841E+00  4.119E+01  4.198E-01  7.523E-01
   1   13    5     8     2    1.5295E+02  2.1039E-01   1.5274E+02  0.000E+00  0.000E+00  0.000E+00  1.01846E+03  2.837E+00  4.113E+01  4.192E-01  1.673E-01
   1   13    4     8     3    1.5274E+02 -2.3109E+00   1.5505E+02  0.000E+00  0.000E+00  0.000E+00  1.01222E+03  2.844E+00  4.124E+01  4.202E+00 -1.833E-01
   1   13    3     8     4    1.5505E+02 -3.5890E+00   1.5864E+02  0.000E+00  0.000E+00  0.000E+00  1.00599E+03  2.864E+00  4.153E+01  4.232E+00 -2.827E-01
   1   13    2     8     5    1.5864E+02 -2.5828E+00   1.6122E+02  0.000E+00  0.000E+00  0.000E+00  9.99760E+02  2.885E+00  4.184E+01  4.263E+00 -2.019E-01
   1   13    1     8     6    1.6122E+02 -1.9938E+00   1.6322E+02  0.000E+00  0.000E+00  0.000E+00  9.94776E+02  2.901E+00  4.206E+01  2.572E+00 -2.584E-01
   1    8    6     9     1    2.3479E+01  0.0000E+00   2.3479E+01  0.000E+00  0.000E+00  0.000E+00  1.08253E+03  3.782E+00  4.000E+00  0.000E+00  2.261E+00
   1    8    5     9     2    2.3479E+01  0.0000E+00   2.3479E+01  0.000E+00  0.000E+00  0.000E+00  1.08203E+03  3.782E+00  4.000E+00  0.000E+00  2.261E+00



 UBDSV3 SAVING "           GW ET" ON UNIT  61 AT TIME STEP 15, STRESS PERIOD   8
 UBDSV3 SAVING "    UZF RECHARGE" ON UNIT  61 AT TIME STEP 15, STRESS PERIOD   8
 UBDSV3 SAVING " SURFACE LEAKAGE" ON UNIT  61 AT TIME STEP 15, STRESS PERIOD   8
 UBDSV3 SAVING "       HORT+DUNN" ON UNIT  61 AT TIME STEP 15, STRESS PERIOD   8
 UBDSV3 SAVING "  STORAGE CHANGE" ON UNIT  61 AT TIME STEP 15, STRESS PERIOD   8


UNSATURATED ZONE PACKAGE VOLUMETRIC BUDGET FOR  TIME STEP    15 STRESS PERIOD    8
  ------------------------------------------------------------------------------



     CUMULATIVE VOLUMES      L**3       RATES FOR THIS TIME STEP      L**3/T
     ------------------                 ------------------------

           IN:                                      IN:
           ---                                      ---
        INFILTRATION =   698234758.7129          INFILTRATION =          78.5957

          OUT:                                     OUT:
          ----                                     ----
              UZF ET =   184030902.6031                UZF ET =          60.8175
        UZF RECHARGE =       73224.0000          UZF RECHARGE =       0.0000E+00

            IN - OUT =   514130632.1098              IN - OUT =          17.7782

          STORAGE:                                 STORAGE:
          --------                                 --------
      STORAGE CHANGE =   514130732.5652        STORAGE CHANGE =          17.7782

 PERCENT DISCREPANCY IS DIFFERENCE BETWEEN IN-OUT MINUS CHANGE IN STORAGE
 DIVIDED BY THE AVERAGE OF IN AND OUT TIMES 100

 PERCENT DISCREPANCY =          -0.00     PERCENT DISCREPANCY =           0.00






 

            AG WELLS      PERIOD    8   STEP  15
 AG WELL      1   LAYER   1   ROW     6   COL     4   RATE    -9.04475    
 AG WELL      2   LAYER   1   ROW     6   COL     5   RATE    -9.04475    
 AG WELL      3   LAYER   1   ROW     7   COL     4   RATE    -9.04475    
 AG WELL      4   LAYER   1   ROW     7   COL     5   RATE    -9.04475    
 AG WELL      5   LAYER   1   ROW     8   COL     4   RATE    -9.04475    
 AG WELL      6   LAYER   1   ROW     8   COL     5   RATE    -9.04475    
 
 

   DIVERSION SEGMENTS     PERIOD    8   STEP  15
 SEGMENT      9   RATE     23.4793    
 
 

        SW IRRIGATION     PERIOD    8   STEP  15
 SEGMENT      9   ROW     6   COL     4   RATE     3.91329    
 SEGMENT      9   ROW     6   COL     5   RATE     3.91329    
 SEGMENT      9   ROW     7   COL     4   RATE     3.91329    
 SEGMENT      9   ROW     7   COL     5   RATE     3.91329    
 SEGMENT      9   ROW     8   COL     4   RATE     3.91329    
 SEGMENT      9   ROW     8   COL     5   RATE     3.91329    
 
 

        GW IRRIGATION     PERIOD    8   STEP  15
 AG WELL      1   ROW     6   COL     4   RATE     9.04475    
 AG WELL      2   ROW     6   COL     5   RATE     9.04475    
 AG WELL      3   ROW     7   COL     4   RATE     9.04475    
 AG WELL      4   ROW     7   COL     5   RATE     9.04475    
 AG WELL      5   ROW     8   COL     4   RATE     9.04475    
 AG WELL      6   ROW     8   COL     5   RATE     9.04475    
 
1
  VOLUMETRIC BUDGET FOR AGRICULTURAL FIELDS AT  END OF TIME STEP   15, STRESS PERIOD   8
  ------------------------------------------------------------------------------

     CUMULATIVE VOLUMES      L**3       RATES FOR THIS TIME STEP      L**3/T
     ------------------                 ------------------------

           IN:                                      IN:
           ---                                      ---
               AG WELLS  =   512008384.0000                 AG WELLS  =          54.2685
      DIVERSION SEGMENTS =   171662160.0000        DIVERSION SEGMENTS =          23.4793
           GW IRRIGATION =           0.0000             GW IRRIGATION =           0.0000
           SW IRRIGATION =           0.0000             SW IRRIGATION =           0.0000
        SYSTEM LOSSES GW =           0.0000          SYSTEM LOSSES GW =           0.0000
        SYSTEM LOSSES SW =           0.0000          SYSTEM LOSSES SW =           0.0000

                TOTAL IN =   683670528.0000                  TOTAL IN =          77.7478

          OUT:                                     OUT:
          ----                                     ----
               AG WELLS  =           0.0000                 AG WELLS  =           0.0000
      DIVERSION SEGMENTS =           0.0000        DIVERSION SEGMENTS =           0.0000
           GW IRRIGATION =   512008384.0000             GW IRRIGATION =          54.2685
           SW IRRIGATION =   171665392.0000             SW IRRIGATION =          23.4797
        SYSTEM LOSSES GW =           0.0000          SYSTEM LOSSES GW =           0.0000
        SYSTEM LOSSES SW =           0.0000          SYSTEM LOSSES SW =           0.0000

               TOTAL OUT =   683673792.0000                 TOTAL OUT =          77.7482

                IN - OUT =       -3264.0000                  IN - OUT =      -4.7302E-04

     PERCENT DISCREPANCY =          -0.00         PERCENT DISCREPANCY =          -0.00



1
  VOLUMETRIC BUDGET FOR ENTIRE MODEL AT END OF TIME STEP   15, STRESS PERIOD   8
  ------------------------------------------------------------------------------

     CUMULATIVE VOLUMES      L**3       RATES FOR THIS TIME STEP      L**3/T
     ------------------                 ------------------------

           IN:                                      IN:
           ---                                      ---
             STORAGE     =   579339968.0000               STORAGE     =          61.1845
       CONSTANT HEAD     =           0.0000         CONSTANT HEAD     =           0.0000
     HEAD DEP BOUNDS     =     4946139.0000       HEAD DEP BOUNDS     =           0.2880
      STREAM LEAKAGE     =   203007168.0000        STREAM LEAKAGE     =          11.9683
        UZF RECHARGE     =       73223.9531          UZF RECHARGE     =           0.0000
               GW ET     =           0.0000                 GW ET     =           0.0000
     SURFACE LEAKAGE     =           0.0000       SURFACE LEAKAGE     =           0.0000
           AG WELLS      =           0.0000             AG WELLS      =           0.0000

                TOTAL IN =   787366464.0000                  TOTAL IN =          73.4407

          OUT:                                     OUT:
          ----                                     ----
             STORAGE     =    92484712.0000               STORAGE     =           8.3439
       CONSTANT HEAD     =           0.0000         CONSTANT HEAD     =           0.0000
     HEAD DEP BOUNDS     =     4947661.5000       HEAD DEP BOUNDS     =           0.2869
      STREAM LEAKAGE     =   177928752.0000        STREAM LEAKAGE     =          10.5413
        UZF RECHARGE     =           0.0000          UZF RECHARGE     =           0.0000
               GW ET     =           0.0000                 GW ET     =           0.0000
     SURFACE LEAKAGE     =           0.0000       SURFACE LEAKAGE     =           0.0000
           AG WELLS      =   512008384.0000             AG WELLS      =          54.2685

               TOTAL OUT =   787369472.0000                 TOTAL OUT =          73.4406

                IN - OUT =       -3008.0000                  IN - OUT =       1.0681E-04

     PERCENT DISCREPANCY =          -0.00         PERCENT DISCREPANCY =           0.00






         TIME SUMMARY AT END OF TIME STEP   15 IN STRESS PERIOD    8
                    SECONDS     MINUTES      HOURS       DAYS        YEARS
                    -----------------------------------------------------------
   TIME STEP LENGTH  87667.      1461.1      24.352      1.0147     2.77799E-03
 STRESS PERIOD TIME 1.31500E+06  21917.      365.28      15.220     4.16698E-02
         TOTAL TIME 1.71814E+07 2.86357E+05  4772.6      198.86     0.54445    
1
 
 SOLVING FOR HEAD 
                                                   Max.-Head-Change                         Max.-Flux-Residual
  Residual-Control   Outer-Iter.   Inner-Iter.     Column Row Layer    Maximum-Head-Change  Column Row Layer    Maximum-Flux-Residual          L2-NORM 
          0                 1           2             5    8     1       0.2319792427E+00       5    8    1         0.1268502823E+02      0.2862379037E+02
          0                 2           2             5    8     1      -0.9363717273E-01       5    8    1        -0.5181670590E+01      0.1212969096E+02
          0                 3           2             4    7     1       0.4092181677E-01       5    8    1         0.2304354148E+01      0.5596787348E+01
          0                 4           2             4    7     1      -0.2443439598E-01       5    8    1        -0.1387344055E+01      0.3396270564E+01
          0                 5           2             4    7     1       0.3012831506E-03       5    6    1         0.1756532247E-01      0.4303913989E-01
          0                 6           1             4    7     1       0.4431041036E-05       5    8    1         0.2590057450E-03      0.6346135042E-03

    ------------------------------------------------
       NWT REQUIRED            6 OUTER ITERATIONS 
       AND A TOTAL OF         11 INNER ITERATIONS.
    ------------------------------------------------

 NO OUTPUT CONTROL FOR STRESS PERIOD    8   TIME STEP   16
 
 SOLVING FOR HEAD 
                                                   Max.-Head-Change                         Max.-Flux-Residual
  Residual-Control   Outer-Iter.   Inner-Iter.     Column Row Layer    Maximum-Head-Change  Column Row Layer    Maximum-Flux-Residual          L2-NORM 
          0                 1           2             5    8     1       0.2224176643E+00       5    8    1         0.1215177297E+02      0.2770641548E+02
          0                 2           2             5    8     1      -0.1137109649E+00       5    8    1        -0.6284806391E+01      0.1486987889E+02
          0                 3           2             4    7     1      -0.4547103941E+00       4    7    1        -0.2440098462E+02      0.5970816908E+02
          0                 4           2             4    7     1       0.3096725598E-01       4    7    1         0.1708264838E+01      0.4180566202E+01
          0                 5           2             4    7     1      -0.1232513922E-02       4    7    1        -0.6988627359E-01      0.1710576910E+00
          0                 6           1             4    7     1       0.1520870452E-04       4    7    1         0.8863465507E-03      0.2169921446E-02

    ------------------------------------------------
       NWT REQUIRED            6 OUTER ITERATIONS 
       AND A TOTAL OF         11 INNER ITERATIONS.
    ------------------------------------------------

 NO OUTPUT CONTROL FOR STRESS PERIOD    8   TIME STEP   17
 
 SOLVING FOR HEAD 
                                                   Max.-Head-Change                         Max.-Flux-Residual
  Residual-Control   Outer-Iter.   Inner-Iter.     Column Row Layer    Maximum-Head-Change  Column Row Layer    Maximum-Flux-Residual          L2-NORM 
          0                 1           2             5    8     1       0.2278545077E+00       5    8    1         0.1244654096E+02      0.2845475126E+02
          0                 2           2             5    8     1      -0.9323635906E-01       5    8    1        -0.5157827348E+01      0.1213263049E+02
          0                 3           2             4    7     1      -0.1784717042E+01       4    7    1        -0.9576964059E+02      0.2345239620E+03
          0                 4           2             4    7     1       0.1215318570E+00       4    7    1         0.6703790140E+01      0.1641877596E+02
          0                 5           2             4    7     1      -0.4837098950E-02       4    7    1        -0.2742601139E+00      0.6718150795E+00
          0                 6           1             4    7     1       0.5968766869E-04       5    8    1         0.3478754031E-02      0.8522052586E-02

    ------------------------------------------------
       NWT REQUIRED            6 OUTER ITERATIONS 
       AND A TOTAL OF         11 INNER ITERATIONS.
    ------------------------------------------------

 NO OUTPUT CONTROL FOR STRESS PERIOD    8   TIME STEP   18
 
 SOLVING FOR HEAD 
                                                   Max.-Head-Change                         Max.-Flux-Residual
  Residual-Control   Outer-Iter.   Inner-Iter.     Column Row Layer    Maximum-Head-Change  Column Row Layer    Maximum-Flux-Residual          L2-NORM 
          0                 1           2             5    8     1       0.2709024424E+00       5    8    1         0.1481584943E+02      0.3343444920E+02
          0                 2           2             5    8     1      -0.1440244009E+00       5    8    1        -0.7960503106E+01      0.1878195397E+02
          0                 3           2             4    7     1       0.8003538043E-01       5    8    1         0.4470444315E+01      0.1089297930E+02
          0                 4           2             4    7     1      -0.1174571990E+00       5    8    1        -0.6661800758E+01      0.1631565583E+02
          0                 5           2             4    7     1       0.1448215463E-02       4    7    1         0.8438455309E-01      0.2067644511E+00
          0                 6           1             4    7     1       0.2129922896E-04       5    8    1         0.1243793539E-02      0.3049221070E-02

    ------------------------------------------------
       NWT REQUIRED            6 OUTER ITERATIONS 
       AND A TOTAL OF         11 INNER ITERATIONS.
    ------------------------------------------------

 NO OUTPUT CONTROL FOR STRESS PERIOD    8   TIME STEP   19
 
 SOLVING FOR HEAD 
                                                   Max.-Head-Change                         Max.-Flux-Residual
  Residual-Control   Outer-Iter.   Inner-Iter.     Column Row Layer    Maximum-Head-Change  Column Row Layer    Maximum-Flux-Residual          L2-NORM 
          0                 1           2             5    8     1       0.2625129866E+00       5    8    1         0.1434624593E+02      0.3267226267E+02
          0                 2           2             5    8     1      -0.9660812070E-01       5    8    1        -0.5347777819E+01      0.1250248484E+02
          0                 3           2             4    7     1       0.4105483922E-01       5    8    1         0.2315981850E+01      0.5621543492E+01
          0                 4           2             4    7     1      -0.2444065591E-01       5    8    1        -0.1387820055E+01      0.3397272404E+01
          0                 5           2             4    7     1       0.3013603410E-03       5    6    1         0.1757142845E-01      0.4305132810E-01
          0                 6           1             4    7     1       0.4432175982E-05       5    8    1         0.2590908405E-03      0.6347773387E-03

    ------------------------------------------------
       NWT REQUIRED            6 OUTER ITERATIONS 
       AND A TOTAL OF         11 INNER ITERATIONS.
    ------------------------------------------------

 NO OUTPUT CONTROL FOR STRESS PERIOD    8   TIME STEP   20
 
 SOLVING FOR HEAD 
                                                   Max.-Head-Change                         Max.-Flux-Residual
  Residual-Control   Outer-Iter.   Inner-Iter.     Column Row Layer    Maximum-Head-Change  Column Row Layer    Maximum-Flux-Residual          L2-NORM 
          0                 1           2             5    8     1       0.2516026727E+00       5    8    1         0.1373832706E+02      0.3161458423E+02
          0                 2           2             5    8     1      -0.1165510677E+00       5    8    1        -0.6443448205E+01      0.1522706533E+02
          0                 3           2             4    7     1      -0.4545942707E+00       4    7    1        -0.2439377560E+02      0.5968442627E+02
          0                 4           2             4    7     1       0.3095934541E-01       4    7    1         0.1707760737E+01      0.4178905738E+01
          0                 5           2             4    7     1      -0.1232199087E-02       4    7    1        -0.6986568003E-01      0.1709900239E+00
          0                 6           1             4    7     1       0.1520481981E-04       4    7    1         0.8860857315E-03      0.2169069546E-02

    ------------------------------------------------
       NWT REQUIRED            6 OUTER ITERATIONS 
       AND A TOTAL OF         11 INNER ITERATIONS.
    ------------------------------------------------

 NO OUTPUT CONTROL FOR STRESS PERIOD    8   TIME STEP   21
 
 SOLVING FOR HEAD 
                                                   Max.-Head-Change                         Max.-Flux-Residual
  Residual-Control   Outer-Iter.   Inner-Iter.     Column Row Layer    Maximum-Head-Change  Column Row Layer    Maximum-Flux-Residual          L2-NORM 
          0                 1           2             5    8     1       0.2557691355E+00       5    8    1         0.1396279909E+02      0.3222327149E+02
          0                 2           2             5    8     1      -0.9595259210E-01       5    8    1        -0.5309439749E+01      0.1248233152E+02
          0                 3           2             4    7     1      -0.1784658548E+01       4    7    1        -0.9576240060E+02      0.2345008829E+03
          0                 4           2             4    7     1       0.1215278618E+00       4    7    1         0.6703283460E+01      0.1641716306E+02
          0                 5           2             4    7     1      -0.4836939992E-02       4    7    1        -0.2742394234E+00      0.6717493404E+00
          0                 6           1             4    7     1       0.5968570707E-04       5    8    1         0.3478374622E-02      0.8521223430E-02

    ------------------------------------------------
       NWT REQUIRED            6 OUTER ITERATIONS 
       AND A TOTAL OF         11 INNER ITERATIONS.
    ------------------------------------------------

 NO OUTPUT CONTROL FOR STRESS PERIOD    8   TIME STEP   22
 
 SOLVING FOR HEAD 
                                                   Max.-Head-Change                         Max.-Flux-Residual
  Residual-Control   Outer-Iter.   Inner-Iter.     Column Row Layer    Maximum-Head-Change  Column Row Layer    Maximum-Flux-Residual          L2-NORM 
          0                 1           2             5    8     1       0.2976139258E+00       5    8    1         0.1626553246E+02      0.3704976601E+02
          0                 2           2             5    8     1      -0.1466243268E+00       5    8    1        -0.8105456464E+01      0.1911725004E+02
          0                 3           2             4    7     1       0.8017110153E-01       5    8    1         0.4480591310E+01      0.1091553076E+02
          0                 4           2             4    7     1      -0.1174676141E+00       5    8    1        -0.6662218760E+01      0.1631657751E+02
          0                 5           2             4    7     1       0.1448343866E-02       4    7    1         0.8438832065E-01      0.2067751003E+00
          0                 6           1             4    7     1       0.2130111755E-04       5    8    1         0.1243867389E-02      0.3049352797E-02

    ------------------------------------------------
       NWT REQUIRED            6 OUTER ITERATIONS 
       AND A TOTAL OF         11 INNER ITERATIONS.
    ------------------------------------------------

 NO OUTPUT CONTROL FOR STRESS PERIOD    8   TIME STEP   23
 
 SOLVING FOR HEAD 
                                                   Max.-Head-Change                         Max.-Flux-Residual
  Residual-Control   Outer-Iter.   Inner-Iter.     Column Row Layer    Maximum-Head-Change  Column Row Layer    Maximum-Flux-Residual          L2-NORM 
          0                 1           2             5    8     1       0.1410848278E+01       5    8    1         0.7766081607E+02      0.8421329023E+02
          0                 2           2             5    8     1       0.3560520606E+00       5    8    1         0.1977515256E+02      0.2292536727E+02
          0                 3           2             5    8     1       0.1119907016E+00       5    8    1         0.6110361715E+01      0.7991024416E+01
          0                 4           2             4    7     1      -0.2443521252E-01       5    6    1        -0.1388112015E+01      0.3097294691E+01
          0                 5           2             4    7     1       0.3012577178E-03       5    6    1         0.1757655229E-01      0.3950733717E-01
          0                 6           1             5    8     1      -0.1687566640E-04       5    8    1        -0.9650652146E-03      0.1122876392E-02

    ------------------------------------------------
       NWT REQUIRED            6 OUTER ITERATIONS 
       AND A TOTAL OF         11 INNER ITERATIONS.
    ------------------------------------------------

 NO OUTPUT CONTROL FOR STRESS PERIOD    8   TIME STEP   24
 
 SOLVING FOR HEAD 
                                                   Max.-Head-Change                         Max.-Flux-Residual
  Residual-Control   Outer-Iter.   Inner-Iter.     Column Row Layer    Maximum-Head-Change  Column Row Layer    Maximum-Flux-Residual          L2-NORM 
          0                 1           2             5    6     1       0.2720084203E+00       5    6    1         0.1477998794E+02      0.3359920819E+02
          0                 2           2             5    6     1      -0.1186760618E+00       5    6    1        -0.6547580309E+01      0.1450958222E+02
          0                 3           2             5    8     1      -0.4633364573E+00       5    8    1        -0.2554684125E+02      0.6015865514E+02
          0                 4           2             4    7     1       0.3093476710E-01       4    7    1         0.1707234125E+01      0.3864846061E+01
          0                 5           2             4    7     1      -0.1231221560E-02       5    7    1        -0.7000482796E-01      0.1619357217E+00
          0                 6           1             5    8     1      -0.2761832705E-04       5    8    1        -0.1682553822E-02      0.2611458215E-02

    ------------------------------------------------
       NWT REQUIRED            6 OUTER ITERATIONS 
       AND A TOTAL OF         11 INNER ITERATIONS.
    ------------------------------------------------

 NO OUTPUT CONTROL FOR STRESS PERIOD    8   TIME STEP   25
 
 SOLVING FOR HEAD 
                                                   Max.-Head-Change                         Max.-Flux-Residual
  Residual-Control   Outer-Iter.   Inner-Iter.     Column Row Layer    Maximum-Head-Change  Column Row Layer    Maximum-Flux-Residual          L2-NORM 
          0                 1           2             5    6     1       0.2755732558E+00       5    6    1         0.1497353510E+02      0.3405641852E+02
          0                 2           2             5    6     1      -0.9799631492E-01       5    6    1        -0.5410481268E+01      0.1266694756E+02
          0                 3           2             4    7     1      -0.1784598911E+01       4    7    1        -0.9575464495E+02      0.2344883662E+03
          0                 4           2             4    7     1       0.1215237850E+00       5    8    1         0.6703547728E+01      0.1641628619E+02
          0                 5           2             4    7     1      -0.4836777804E-02       5    8    1        -0.2742974693E+00      0.6717134081E+00
          0                 6           1             4    7     1       0.5968370568E-04       5    8    1         0.3479425013E-02      0.8520766565E-02

    ------------------------------------------------
       NWT REQUIRED            6 OUTER ITERATIONS 
       AND A TOTAL OF         11 INNER ITERATIONS.
    ------------------------------------------------

 NO OUTPUT CONTROL FOR STRESS PERIOD    8   TIME STEP   26
 
 SOLVING FOR HEAD 
                                                   Max.-Head-Change                         Max.-Flux-Residual
  Residual-Control   Outer-Iter.   Inner-Iter.     Column Row Layer    Maximum-Head-Change  Column Row Layer    Maximum-Flux-Residual          L2-NORM 
          0                 1           2             5    6     1       0.3147858227E+00       5    6    1         0.1712517448E+02      0.3868653410E+02
          0                 2           2             5    6     1      -0.1484896163E+00       5    6    1        -0.8191384330E+01      0.1929591113E+02
          0                 3           2             4    7     1       0.8032191024E-01       5    6    1         0.4486607496E+01      0.1092795347E+02
          0                 4           2             4    7     1      -0.1174794323E+00       5    6    1        -0.6662471128E+01      0.1631708561E+02
          0                 5           2             4    7     1       0.1448489610E-02       4    7    1         0.8439243501E-01      0.2067812515E+00
          0                 6           1             4    7     1       0.2130326109E-04       5    8    1         0.1243663491E-02      0.3049429400E-02

    ------------------------------------------------
       NWT REQUIRED            6 OUTER ITERATIONS 
       AND A TOTAL OF         11 INNER ITERATIONS.
    ------------------------------------------------

 NO OUTPUT CONTROL FOR STRESS PERIOD    8   TIME STEP   27
 
 SOLVING FOR HEAD 
                                                   Max.-Head-Change                         Max.-Flux-Residual
  Residual-Control   Outer-Iter.   Inner-Iter.     Column Row Layer    Maximum-Head-Change  Column Row Layer    Maximum-Flux-Residual          L2-NORM 
          0                 1           2             5    8     1       0.1679090707E+01       5    8    1         0.9238093467E+02      0.9907689057E+02
          0                 2           2             5    8     1       0.3948840042E+00       5    8    1         0.2192838416E+02      0.2497373577E+02
          0                 3           2             5    8     1       0.1202309289E+00       5    8    1         0.6565108623E+01      0.8359670789E+01
          0                 4           2             4    7     1      -0.2444156678E-01       5    6    1        -0.1388468621E+01      0.3100204432E+01
          0                 5           2             5    8     1       0.3051181038E-03       4    8    1         0.1761394761E-01      0.4259835181E-01
          0                 6           1             5    8     1       0.6490114843E-04       5    8    1         0.3571634398E-02      0.3622905596E-02

    ------------------------------------------------
       NWT REQUIRED            6 OUTER ITERATIONS 
       AND A TOTAL OF         11 INNER ITERATIONS.
    ------------------------------------------------

 NO OUTPUT CONTROL FOR STRESS PERIOD    8   TIME STEP   28
 
 SOLVING FOR HEAD 
                                                   Max.-Head-Change                         Max.-Flux-Residual
  Residual-Control   Outer-Iter.   Inner-Iter.     Column Row Layer    Maximum-Head-Change  Column Row Layer    Maximum-Flux-Residual          L2-NORM 
          0                 1           2             5    6     1       0.2948143006E+00       5    6    1         0.1599567233E+02      0.3605752825E+02
          0                 2           2             5    6     1      -0.1209018750E+00       5    6    1        -0.6669124675E+01      0.1508992563E+02
          0                 3           2             5    8     1      -0.4672348768E+00       5    8    1        -0.2577109020E+02      0.6023108405E+02
          0                 4           2             4    7     1       0.3093759889E-01       4    7    1         0.1706658652E+01      0.3962085644E+01
          0                 5           2             4    7     1      -0.1231334042E-02       4    7    1        -0.6982066156E-01      0.1621146338E+00
          0                 6           1             4    7     1       0.1519414504E-04       4    7    1         0.8855153419E-03      0.2056418630E-02

    ------------------------------------------------
       NWT REQUIRED            6 OUTER ITERATIONS 
       AND A TOTAL OF         11 INNER ITERATIONS.
    ------------------------------------------------

 NO OUTPUT CONTROL FOR STRESS PERIOD    8   TIME STEP   29
 
 SOLVING FOR HEAD 
                                                   Max.-Head-Change                         Max.-Flux-Residual
  Residual-Control   Outer-Iter.   Inner-Iter.     Column Row Layer    Maximum-Head-Change  Column Row Layer    Maximum-Flux-Residual          L2-NORM 
          0                 1           2             4    8     1       0.1015201250E+01       4    8    1         0.5494409007E+02      0.7511170484E+02
          0                 2           2             4    8     1       0.1474094494E+00       4    8    1         0.8107164523E+01      0.1330593676E+02
          0                 3           2             4    7     1      -0.1784114653E+01       5    8    1        -0.9576880004E+02      0.2335050358E+03
          0                 4           2             5    7     1      -0.4883294040E+00       5    7    1        -0.2763975104E+02      0.4119726862E+02
          0                 5           2             4    8     1      -0.9983532083E-01       4    8    1        -0.5557964480E+01      0.6007462978E+01
          0                 6           2             4    8     1      -0.2391247269E-01       4    8    1        -0.1332894748E+01      0.1335984000E+01
          0                 7           2             4    8     1      -0.5727274554E-02       4    8    1        -0.3192166328E+00      0.3192223116E+00
          0                 8           2             4    8     1      -0.1371695444E-02       4    8    1        -0.7645263840E-01      0.7645341847E-01
          0                 9           2             4    8     1      -0.3285142994E-03       4    8    1        -0.1830985361E-01      0.1831004067E-01
          0                10           1             4    8     1      -0.7867521122E-04       4    8    1        -0.4384947985E-02      0.4384992808E-02

    ------------------------------------------------
       NWT REQUIRED           10 OUTER ITERATIONS 
       AND A TOTAL OF         19 INNER ITERATIONS.
    ------------------------------------------------

 NO OUTPUT CONTROL FOR STRESS PERIOD    8   TIME STEP   30



 STREAM LISTING     PERIOD      8   STEP       30

 LAYER ROW COL. STREAM  RCH.  FLOW INTO     FLOW TO   FLOW OUT OF   OVRLND.     DIRECT     STREAM       STREAM     STREAM     STREAM   STREAMBED  STREAMBED
                SEG.NO.  NO.  STRM. RCH.    AQUIFER    STRM. RCH.    RUNOFF     PRECIP       ET          HEAD       DEPTH      WIDTH   CONDCTNC.   GRADIENT

   1    1    1     1     1    2.8125E+01  2.5915E-01   2.7866E+01  0.000E+00  0.000E+00  0.000E+00  1.09427E+03  1.223E+00  1.364E+01  6.137E-02  1.408E+00
   1    2    2     1     2    2.7866E+01  4.0087E-01   2.7465E+01  0.000E+00  0.000E+00  0.000E+00  1.08928E+03  1.218E+00  1.358E+01  9.503E-02  1.406E+00
   1    3    3     1     3    2.7465E+01  3.4142E-01   2.7123E+01  0.000E+00  0.000E+00  0.000E+00  1.08363E+03  1.213E+00  1.351E+01  8.103E-02  1.404E+00
   1    3    4     1     4    2.7123E+01  3.1403E-01   2.6809E+01  0.000E+00  0.000E+00  0.000E+00  1.07862E+03  1.209E+00  1.344E+01  7.461E-02  1.403E+00
   1    4    5     2     1    2.4809E+01  3.2739E-01   2.4482E+01  0.000E+00  0.000E+00  0.000E+00  1.07313E+03  1.197E+00  1.200E+01  7.800E-02  1.399E+00
   1    5    6     2     2    2.4482E+01  2.5133E-01   2.4231E+01  0.000E+00  0.000E+00  0.000E+00  1.06770E+03  1.189E+00  1.200E+01  6.000E-02  1.396E+00
   1    6    6     2     3    2.4231E+01  2.5089E-01   2.3980E+01  0.000E+00  0.000E+00  0.000E+00  1.06297E+03  1.181E+00  1.200E+01  6.000E-02  1.394E+00
   1    7    6     2     4    2.3980E+01  2.5044E-01   2.3729E+01  0.000E+00  0.000E+00  0.000E+00  1.05825E+03  1.174E+00  1.200E+01  6.000E-02  1.391E+00
   1    8    6     2     5    2.3729E+01  2.5000E-01   2.3479E+01  0.000E+00  0.000E+00  0.000E+00  1.05353E+03  1.167E+00  1.200E+01  6.000E-02  1.389E+00
   1    3    5     3     1    2.0000E+00  2.8252E-01   1.7175E+00  0.000E+00  0.000E+00  0.000E+00  1.07555E+03  1.909E+00  9.636E+00  7.227E-02  1.955E+00
   1    3    6     3     2    1.7175E+00  2.4905E-01   1.4684E+00  0.000E+00  0.000E+00  0.000E+00  1.07264E+03  1.727E+00  8.909E+00  6.682E-02  1.864E+00
   1    3    7     3     3    1.4684E+00  1.9718E-01   1.2712E+00  0.000E+00  0.000E+00  0.000E+00  1.06987E+03  1.555E+00  8.218E+00  5.547E-02  1.777E+00
   1    4    8     3     4    1.2712E+00  2.2567E-01   1.0456E+00  0.000E+00  0.000E+00  0.000E+00  1.06682E+03  1.364E+00  7.455E+00  6.709E-02  1.682E+00
   1    5    8     3     5    1.0456E+00  1.5790E-01   8.8768E-01  0.000E+00  0.000E+00  0.000E+00  1.06362E+03  1.164E+00  6.655E+00  4.991E-02  1.582E+00
   1    6    8     3     6    8.8768E-01  5.5980E-02   8.3170E-01  0.000E+00  0.000E+00  0.000E+00  1.06158E+03  1.036E+00  6.145E+00  1.844E-02  1.518E+00
   1    5   10     4     1    1.0000E+01  9.0919E-02   9.9091E+00  0.000E+00  0.000E+00  0.000E+00  1.07836E+03  6.368E-01  1.000E+01  2.500E-02  1.212E+00
   1    5    9     4     2    9.9091E+00  1.8158E-01   9.7275E+00  0.000E+00  0.000E+00  0.000E+00  1.07154E+03  6.315E-01  1.000E+01  5.000E-02  1.211E+00
   1    6    8     4     3    9.7275E+00  1.2689E-01   9.6006E+00  0.000E+00  0.000E+00  0.000E+00  1.06381E+03  6.256E-01  1.000E+01  3.500E-02  1.209E+00
   1    6    8     5     1    1.0432E+01  2.2686E-01   1.0205E+01  0.000E+00  0.000E+00  0.000E+00  1.05868E+03  6.790E-01  1.542E+01  6.166E-02  1.226E+00
   1    7    7     5     2    1.0205E+01  2.7894E-01   9.9265E+00  0.000E+00  0.000E+00  0.000E+00  1.05417E+03  6.732E-01  1.519E+01  7.594E-02  1.224E+00
   1    8    7     5     3    9.9265E+00  1.9221E-01   9.7343E+00  0.000E+00  0.000E+00  0.000E+00  1.04992E+03  6.676E-01  1.497E+01  5.241E-02  1.223E+00
   1    8    6     5     4    9.7343E+00  1.3577E-01   9.5985E+00  0.000E+00  0.000E+00  0.000E+00  1.04691E+03  6.637E-01  1.482E+01  3.706E-02  1.221E+00
   1    9    6     6     1    9.5985E+00  2.2097E-01   9.3776E+00  0.000E+00  0.000E+00  0.000E+00  1.04341E+03  6.828E-01  1.200E+01  6.000E-02  1.228E+00
   1   10    7     6     2    9.3776E+00  2.2039E-01   9.1572E+00  0.000E+00  0.000E+00  0.000E+00  1.03885E+03  6.732E-01  1.200E+01  6.000E-02  1.224E+00
   1   11    7     6     3    9.1572E+00  2.1981E-01   8.9374E+00  0.000E+00  0.000E+00  0.000E+00  1.03430E+03  6.636E-01  1.200E+01  6.000E-02  1.221E+00
   1   12    7     6     4    8.9374E+00  2.1923E-01   8.7181E+00  0.000E+00  0.000E+00  0.000E+00  1.02974E+03  6.539E-01  1.200E+01  6.000E-02  1.218E+00
   1   13    7     6     5    8.7181E+00 -6.3350E-02   8.7815E+00  0.000E+00  0.000E+00  0.000E+00  1.02656E+03  6.504E-01  1.200E+01  2.400E-01 -8.799E-02
   1   14    9     7     1    1.5000E+02  1.3684E+00   1.4863E+02  0.000E+00  0.000E+00  0.000E+00  1.03987E+03  2.288E+00  5.529E+01  5.593E-01  8.155E-01
   1   13    8     7     2    1.4863E+02  1.9194E+00   1.4671E+02  0.000E+00  0.000E+00  0.000E+00  1.03478E+03  2.279E+00  5.526E+01  6.148E-01  1.041E+00
   1   13    7     7     3    1.4671E+02  1.6001E+00   1.4511E+02  0.000E+00  0.000E+00  0.000E+00  1.02969E+03  2.269E+00  5.521E+01  5.584E-01  9.551E-01
   1   13    6     8     1    1.5389E+02  9.5094E-01   1.5294E+02  0.000E+00  0.000E+00  0.000E+00  1.02472E+03  2.841E+00  4.119E+01  4.197E-01  7.552E-01
   1   13    5     8     2    1.5294E+02  2.1473E-01   1.5273E+02  0.000E+00  0.000E+00  0.000E+00  1.01846E+03  2.837E+00  4.113E+01  4.191E-01  1.708E-01
   1   13    4     8     3    1.5273E+02 -2.2849E+00   1.5501E+02  0.000E+00  0.000E+00  0.000E+00  1.01222E+03  2.844E+00  4.124E+01  4.202E+00 -1.813E-01
   1   13    3     8     4    1.5501E+02 -3.5708E+00   1.5858E+02  0.000E+00  0.000E+00  0.000E+00  1.00599E+03  2.864E+00  4.153E+01  4.232E+00 -2.813E-01
   1   13    2     8     5    1.5858E+02 -2.5657E+00   1.6115E+02  0.000E+00  0.000E+00  0.000E+00  9.99760E+02  2.885E+00  4.183E+01  4.263E+00 -2.006E-01
   1   13    1     8     6    1.6115E+02 -1.9823E+00   1.6313E+02  0.000E+00  0.000E+00  0.000E+00  9.94775E+02  2.900E+00  4.205E+01  2.571E+00 -2.570E-01
   1    8    6     9     1    2.3479E+01  0.0000E+00   2.3479E+01  0.000E+00  0.000E+00  0.000E+00  1.08253E+03  3.782E+00  4.000E+00  0.000E+00  2.261E+00
   1    8    5     9     2    2.3479E+01  0.0000E+00   2.3479E+01  0.000E+00  0.000E+00  0.000E+00  1.08203E+03  3.782E+00  4.000E+00  0.000E+00  2.261E+00





UNSATURATED ZONE PACKAGE VOLUMETRIC BUDGET FOR  TIME STEP    30 STRESS PERIOD    8
  ------------------------------------------------------------------------------



     CUMULATIVE VOLUMES      L**3       RATES FOR THIS TIME STEP      L**3/T
     ------------------                 ------------------------

           IN:                                      IN:
           ---                                      ---
        INFILTRATION =  1024607179.6511          INFILTRATION =         624.3272

          OUT:                                     OUT:
          ----                                     ----
              UZF ET =   264006004.2913                UZF ET =          60.8175
        UZF RECHARGE =    21625059.1250          UZF RECHARGE =          20.1906

            IN - OUT =   738976116.2348              IN - OUT =         543.3191

          STORAGE:                                 STORAGE:
          --------                                 --------
      STORAGE CHANGE =   738976225.1830        STORAGE CHANGE =         543.3192

 PERCENT DISCREPANCY IS DIFFERENCE BETWEEN IN-OUT MINUS CHANGE IN STORAGE
 DIVIDED BY THE AVERAGE OF IN AND OUT TIMES 100

 PERCENT DISCREPANCY =          -0.00     PERCENT DISCREPANCY =          -0.00






1
  VOLUMETRIC BUDGET FOR AGRICULTURAL FIELDS AT  END OF TIME STEP   30, STRESS PERIOD   8
  ------------------------------------------------------------------------------

     CUMULATIVE VOLUMES      L**3       RATES FOR THIS TIME STEP      L**3/T
     ------------------                 ------------------------

           IN:                                      IN:
           ---                                      ---
               AG WELLS  =   806390592.0000                 AG WELLS  =         600.0000
      DIVERSION SEGMENTS =   202537440.0000        DIVERSION SEGMENTS =          23.4793
           GW IRRIGATION =           0.0000             GW IRRIGATION =           0.0000
           SW IRRIGATION =           0.0000             SW IRRIGATION =           0.0000
        SYSTEM LOSSES GW =           0.0000          SYSTEM LOSSES GW =           0.0000
        SYSTEM LOSSES SW =           0.0000          SYSTEM LOSSES SW =           0.0000

                TOTAL IN =  1008928000.0000                  TOTAL IN =         623.4792

          OUT:                                     OUT:
          ----                                     ----
               AG WELLS  =           0.0000                 AG WELLS  =           0.0000
      DIVERSION SEGMENTS =           0.0000        DIVERSION SEGMENTS =           0.0000
           GW IRRIGATION =   806390592.0000             GW IRRIGATION =         600.0000
           SW IRRIGATION =   202541152.0000             SW IRRIGATION =          23.4797
        SYSTEM LOSSES GW =           0.0000          SYSTEM LOSSES GW =           0.0000
        SYSTEM LOSSES SW =           0.0000          SYSTEM LOSSES SW =           0.0000

               TOTAL OUT =  1008931712.0000                 TOTAL OUT =         623.4797

                IN - OUT =       -3712.0000                  IN - OUT =      -4.8828E-04

     PERCENT DISCREPANCY =          -0.00         PERCENT DISCREPANCY =          -0.00



1
  VOLUMETRIC BUDGET FOR ENTIRE MODEL AT END OF TIME STEP   30, STRESS PERIOD   8
  ------------------------------------------------------------------------------

     CUMULATIVE VOLUMES      L**3       RATES FOR THIS TIME STEP      L**3/T
     ------------------                 ------------------------

           IN:                                      IN:
           ---                                      ---
             STORAGE     =   892654528.0000               STORAGE     =         578.7859
       CONSTANT HEAD     =           0.0000         CONSTANT HEAD     =           0.0000
     HEAD DEP BOUNDS     =     5324819.0000       HEAD DEP BOUNDS     =           0.2880
      STREAM LEAKAGE     =   218754256.0000        STREAM LEAKAGE     =          11.9809
        UZF RECHARGE     =    21625060.0000          UZF RECHARGE     =          20.1906
               GW ET     =           0.0000                 GW ET     =           0.0000
     SURFACE LEAKAGE     =           0.0000       SURFACE LEAKAGE     =           0.0000
           AG WELLS      =           0.0000             AG WELLS      =           0.0000

                TOTAL IN =  1138358656.0000                  TOTAL IN =         611.2453

          OUT:                                     OUT:
          ----                                     ----
             STORAGE     =   134913392.0000               STORAGE     =           0.4926
       CONSTANT HEAD     =           0.0000         CONSTANT HEAD     =           0.0000
     HEAD DEP BOUNDS     =     5324844.5000       HEAD DEP BOUNDS     =           0.2868
      STREAM LEAKAGE     =   191733024.0000        STREAM LEAKAGE     =          10.4671
        UZF RECHARGE     =           0.0000          UZF RECHARGE     =           0.0000
               GW ET     =           0.0000                 GW ET     =           0.0000
     SURFACE LEAKAGE     =           0.0000       SURFACE LEAKAGE     =           0.0000
           AG WELLS      =   806390592.0000             AG WELLS      =         600.0000

               TOTAL OUT =  1138361856.0000                 TOTAL OUT =         611.2464

                IN - OUT =       -3200.0000                  IN - OUT =      -1.0986E-03

     PERCENT DISCREPANCY =          -0.00         PERCENT DISCREPANCY =          -0.00






         TIME SUMMARY AT END OF TIME STEP   30 IN STRESS PERIOD    8
                    SECONDS     MINUTES      HOURS       DAYS        YEARS
                    -----------------------------------------------------------
   TIME STEP LENGTH  87667.      1461.1      24.352      1.0147     2.77799E-03
 STRESS PERIOD TIME 2.63000E+06  43833.      730.56      30.440     8.33397E-02
         TOTAL TIME 1.84964E+07 3.08274E+05  5137.9      214.08     0.58612    
1
1
                            STRESS PERIOD NO.    9, LENGTH =   2630000.    
                            -----------------------------------------------

                              NUMBER OF TIME STEPS =    30

                               MULTIPLIER FOR DELT =     1.000

                            INITIAL TIME STEP SIZE =   87666.66    

 REUSING NON-PARAMETER GHB CELLS FROM LAST STRESS PERIOD

      2 GHB CELLS

 REUSING STREAM SEGMENT DATA FROM LAST STRESS PERIOD



            AREAL INFILTRATION RATE
 READING ON UNIT   19 WITH FORMAT: (FREE)              

            1           2           3           4           5           6           7           8           9          10
 ........................................................................................................................
   1   1.0000E-10  2.0000E-10   0.000       0.000       0.000       0.000       0.000       0.000       0.000       0.000    
   2   2.0000E-10  1.0000E-10  2.0000E-10   0.000       0.000      8.0000E-10  8.0000E-10  5.0000E-10   0.000       0.000    
   3    0.000      5.0000E-10  1.0000E-10  1.0000E-10  8.0000E-10  8.0000E-10  5.0000E-10  5.0000E-10   0.000       0.000    
   4   8.0000E-10  5.0000E-10  1.0000E-10  1.0000E-10  1.0000E-10  1.0000E-10  1.0000E-10  1.0000E-10  2.0000E-10   0.000    
   5   8.0000E-10  5.0000E-10  1.0000E-10  1.0000E-10  1.0000E-10  1.0000E-10  1.0000E-10  1.0000E-10  1.0000E-10  1.0000E-10
   6   8.0000E-10  5.0000E-10  5.0000E-10  2.0000E-10  2.0000E-10  1.0000E-10  1.0000E-10  1.0000E-10  1.0000E-10  5.0000E-10
   7   8.0000E-10  5.0000E-10  5.0000E-10  2.0000E-10  2.0000E-10  1.0000E-10  1.0000E-10  2.0000E-10  2.0000E-10   0.000    
   8    0.000      5.0000E-10  5.0000E-10  2.0000E-10  2.0000E-10  1.0000E-10  1.0000E-10  2.0000E-10  5.0000E-10   0.000    
   9    0.000      5.0000E-10  5.0000E-10  2.0000E-10  2.0000E-10  1.0000E-10  1.0000E-10  2.0000E-10  5.0000E-10   0.000    
  10    0.000      5.0000E-10  5.0000E-10  2.0000E-10  2.0000E-10  1.0000E-10  1.0000E-10  2.0000E-10  5.0000E-10  8.0000E-10
  11    0.000      1.0000E-10  1.0000E-10  1.0000E-10  1.0000E-10  1.0000E-10  1.0000E-10  2.0000E-10  5.0000E-10   0.000    
  12   1.0000E-10  1.0000E-10  1.0000E-10  1.0000E-10  1.0000E-10  1.0000E-10  1.0000E-10  1.0000E-10  2.0000E-10   0.000    
  13   1.0000E-10  1.0000E-10  2.0000E-10  2.0000E-10  2.0000E-10  2.0000E-10  2.0000E-10  1.0000E-10  1.0000E-10   0.000    
  14    0.000      2.0000E-10  5.0000E-10  5.0000E-10  5.0000E-10  5.0000E-10  5.0000E-10  2.0000E-10  1.0000E-10   0.000    
  15    0.000       0.000      8.0000E-10  8.0000E-10  8.0000E-10  8.0000E-10   0.000       0.000       0.000       0.000    

                  ET RATE =  3.250000E-07

 USING ET EXTINCTION DEPTH FROM PREVIOUS STRESS PERIOD. CURRENT PERIOD IS:       9

 USING EXTINCTION WATER CONTENT FROM PREVIOUS STRESS PERIOD. CURRENT PERIOD IS:       9

 USING AIR ENTRY PRESSURE FROM PREVIOUS STRESS PERIOD. CURRENT PERIOD IS:       9

 USING ROOT PRESSURE HEAD FROM PREVIOUS STRESS PERIOD. CURRENT PERIOD IS:       9

 USING ROOT ACTIVITY FROM PREVIOUS STRESS PERIOD. CURRENT PERIOD IS:       9

 PROCESSING AG STRESS PERIOD DATA

 READING AG STRESS PERIOD DATA

 READING IRRIGATION SEGMENT

 READING IRRIGATION WELL

 READING SUPPLEMENTAL WELL

 END PROCESSING AG STRESS PERIOD DATA OPTIONS
 
 SOLVING FOR HEAD 
                                                   Max.-Head-Change                         Max.-Flux-Residual
  Residual-Control   Outer-Iter.   Inner-Iter.     Column Row Layer    Maximum-Head-Change  Column Row Layer    Maximum-Flux-Residual          L2-NORM 
          0                 1           2             5    6     1       0.3363708691E+00       5    6    1         0.1827736353E+02      0.4047936294E+02
          0                 2           2             5    6     1      -0.1236872424E+00       5    6    1        -0.6850978983E+01      0.1387494583E+02
          0                 3           2             5    7     1      -0.2131574304E-01       5    7    1        -0.1227511492E+01      0.1575132304E+01
          0                 4           2             4    8     1      -0.1711926782E-02       4    8    1        -0.9501852437E-01      0.1331951149E+00
          0                 5           2             4    8     1      -0.4100243675E-03       4    8    1        -0.2285846589E-01      0.2312553148E-01
          0                 6           1             4    8     1      -0.9820219604E-04       4    8    1        -0.5473197084E-02      0.5473511770E-02

    ------------------------------------------------
       NWT REQUIRED            6 OUTER ITERATIONS 
       AND A TOTAL OF         11 INNER ITERATIONS.
    ------------------------------------------------

 NO OUTPUT CONTROL FOR STRESS PERIOD    9   TIME STEP    1
 
 SOLVING FOR HEAD 
                                                   Max.-Head-Change                         Max.-Flux-Residual
  Residual-Control   Outer-Iter.   Inner-Iter.     Column Row Layer    Maximum-Head-Change  Column Row Layer    Maximum-Flux-Residual          L2-NORM 
          0                 1           2             5    8     1       0.1666783612E+01       5    8    1         0.9164646518E+02      0.9933023446E+02
          0                 2           2             5    8     1       0.3226619234E+00       5    8    1         0.1777115753E+02      0.1956075501E+02
          0                 3           2             4    7     1      -0.1800706869E+01       5    7    1        -0.9670727945E+02      0.2352713221E+03
          0                 4           2             5    8     1      -0.3993770075E+00       5    8    1        -0.2268549136E+02      0.2557219288E+02
          0                 5           2             5    8     1      -0.1523934127E+00       5    8    1        -0.8641214609E+01      0.8654807602E+01
          0                 6           2             5    8     1      -0.8943487682E-01       5    8    1        -0.5071932288E+01      0.5071946769E+01
          0                 7           2             5    8     1      -0.5248652838E-01       5    8    1        -0.2976481407E+01      0.2976488674E+01
          0                 8           2             5    8     1      -0.3080262361E-01       5    8    1        -0.1746770432E+01      0.1746774687E+01
          0                 9           2             5    8     1      -0.1807697509E-01       5    8    1        -0.1025104047E+01      0.1025106547E+01
          0                10           2             5    8     1      -0.1060868531E-01       5    8    1        -0.6015872144E+00      0.6015886823E+00
                                                   Max.-Head-Change                         Max.-Flux-Residual
  Residual-Control   Outer-Iter.   Inner-Iter.     Column Row Layer    Maximum-Head-Change  Column Row Layer    Maximum-Flux-Residual          L2-NORM 
          0                11           1             5    8     1      -0.6225795880E-02       5    8    1        -0.3530426746E+00      0.3530435363E+00
          0                12           1             5    8     1      -0.3653638229E-02       5    8    1        -0.2071826733E+00      0.2071831791E+00
          0                13           1             5    8     1      -0.2144141658E-02       5    8    1        -0.1215841839E+00      0.1215844807E+00
          0                14           1             5    8     1      -0.1258283849E-02       5    8    1        -0.7135066791E-01      0.7135084213E-01
          0                15           1             5    8     1      -0.7384157561E-03       5    8    1        -0.4187128035E-01      0.4187138259E-01
          0                16           1             5    8     1      -0.4333316950E-03       5    8    1        -0.2457149826E-01      0.2457155826E-01
          0                17           1             5    8     1      -0.2542945857E-03       5    8    1        -0.1441930115E-01      0.1441933636E-01
          0                18           1             5    8     1      -0.1492282076E-03       5    8    1        -0.8461628385E-02      0.8461649047E-02
          0                19           1             5    8     1      -0.8757131656E-04       5    8    1        -0.4965475442E-02      0.4965487568E-02

    ------------------------------------------------
       NWT REQUIRED           19 OUTER ITERATIONS 
       AND A TOTAL OF         29 INNER ITERATIONS.
    ------------------------------------------------

 NO OUTPUT CONTROL FOR STRESS PERIOD    9   TIME STEP    2
 
 SOLVING FOR HEAD 
                                                   Max.-Head-Change                         Max.-Flux-Residual
  Residual-Control   Outer-Iter.   Inner-Iter.     Column Row Layer    Maximum-Head-Change  Column Row Layer    Maximum-Flux-Residual          L2-NORM 
          0                 1           2             5    6     1       0.3622300938E+00       5    6    1         0.1967763170E+02      0.4641714328E+02
          0                 2           2             5    6     1      -0.1030658231E+00       5    6    1        -0.5697285800E+01      0.1220199282E+02
          0                 3           2             5    7     1       0.6181330412E-01       5    6    1         0.3465857445E+01      0.8301409628E+01
          0                 4           2             4    7     1      -0.6824607406E-01       5    6    1        -0.3871437839E+01      0.9171632806E+01
          0                 5           2             5    8     1      -0.1304394708E-01       5    8    1        -0.7411338190E+00      0.7488647614E+00
          0                 6           1             5    8     1      -0.3055167904E-02       5    8    1        -0.1732586386E+00      0.1732638814E+00
          0                 7           1             5    8     1      -0.7155612441E-03       5    8    1        -0.4057195561E-01      0.4057417272E-01
          0                 8           1             5    8     1      -0.1675888194E-03       5    8    1        -0.9501825035E-02      0.9502495190E-02
          0                 9           1             5    8     1      -0.3924912233E-04       5    8    1        -0.2225284258E-02      0.2225448008E-02

    ------------------------------------------------
       NWT REQUIRED            9 OUTER ITERATIONS 
       AND A TOTAL OF         14 INNER ITERATIONS.
    ------------------------------------------------

 NO OUTPUT CONTROL FOR STRESS PERIOD    9   TIME STEP    3
 
 SOLVING FOR HEAD 
                                                   Max.-Head-Change                         Max.-Flux-Residual
  Residual-Control   Outer-Iter.   Inner-Iter.     Column Row Layer    Maximum-Head-Change  Column Row Layer    Maximum-Flux-Residual          L2-NORM 
          0                 1           2             4    8     1       0.1834913101E+01       4    8    1         0.9933851908E+02      0.1384629510E+03
          0                 2           2             5    7     1       0.7034029997E+00       5    7    1         0.3836583889E+02      0.5961298236E+02
          0                 3           2             5    7     1       0.4676049347E+00       5    7    1         0.2536169901E+02      0.3522527929E+02
          0                 4           2             4    8     1      -0.1801043031E+01       4    6    1        -0.1000431207E+03      0.2354727534E+03
          0                 5           2             5    6     1      -0.9498417153E+00       5    6    1        -0.5309556501E+02      0.7679273333E+02
          0                 6           2             5    6     1      -0.5668372867E+00       5    6    1        -0.3167058227E+02      0.4501851964E+02
          0                 7           2             5    6     1      -0.3382879403E+00       5    6    1        -0.1889905054E+02      0.2689351099E+02
          0                 8           2             5    7     1      -0.1878377209E+00       5    7    1        -0.1064189478E+02      0.1144316767E+02
          0                 9           2             5    7     1      -0.1103222286E+00       5    7    1        -0.6251809664E+01      0.6739693611E+01
          0                10           2             5    7     1      -0.6479536029E-01       5    7    1        -0.3671666676E+01      0.3969265012E+01
                                                   Max.-Head-Change                         Max.-Flux-Residual
  Residual-Control   Outer-Iter.   Inner-Iter.     Column Row Layer    Maximum-Head-Change  Column Row Layer    Maximum-Flux-Residual          L2-NORM 
          0                11           2             5    7     1      -0.3805613833E-01       5    7    1        -0.2156442733E+01      0.2337950400E+01
          0                12           2             5    7     1      -0.2235141262E-01       5    7    1        -0.1266517036E+01      0.1377209208E+01
          0                13           2             5    7     1      -0.1312757245E-01       5    7    1        -0.7438477378E+00      0.8113462288E+00
          0                14           2             5    7     1      -0.7710151632E-02       5    7    1        -0.4368741551E+00      0.4780295153E+00
          0                15           2             5    7     1      -0.4528354227E-02       5    7    1        -0.2565829469E+00      0.2816736950E+00
          0                16           2             5    7     1      -0.2659602997E-02       5    7    1        -0.1506947932E+00      0.1659899996E+00
          0                17           2             5    7     1      -0.1562040112E-02       5    7    1        -0.8850497447E-01      0.9782787903E-01
          0                18           2             5    7     1      -0.9174164196E-03       5    7    1        -0.5197997628E-01      0.5766197219E-01
          0                19           2             5    7     1      -0.5388151704E-03       5    7    1        -0.3052835758E-01      0.3399097073E-01
          0                20           2             5    7     1      -0.3164551201E-03       5    7    1        -0.1792956641E-01      0.2003945727E-01
                                                   Max.-Head-Change                         Max.-Flux-Residual
  Residual-Control   Outer-Iter.   Inner-Iter.     Column Row Layer    Maximum-Head-Change  Column Row Layer    Maximum-Flux-Residual          L2-NORM 
          0                21           2             5    7     1      -0.1858589480E-03       5    7    1        -0.1053016419E-01      0.1181565369E-01
          0                22           2             5    7     1      -0.1091575779E-03       5    7    1        -0.6184427967E-02      0.6967549490E-02
          0                23           1             5    7     1      -0.6410964962E-04       5    7    1        -0.3632143490E-02      0.4109168780E-02

    ------------------------------------------------
       NWT REQUIRED           23 OUTER ITERATIONS 
       AND A TOTAL OF         45 INNER ITERATIONS.
    ------------------------------------------------

 NO OUTPUT CONTROL FOR STRESS PERIOD    9   TIME STEP    4
 
 SOLVING FOR HEAD 
                                                   Max.-Head-Change                         Max.-Flux-Residual
  Residual-Control   Outer-Iter.   Inner-Iter.     Column Row Layer    Maximum-Head-Change  Column Row Layer    Maximum-Flux-Residual          L2-NORM 
          0                 1           2             5    7     1       0.1650452124E+01       5    7    1         0.8945134808E+02      0.1328490783E+03
          0                 2           2             5    7     1       0.2882436635E+00       5    7    1         0.1579709922E+02      0.2400403768E+02
          0                 3           2             5    7     1       0.1208581711E+00       5    7    1         0.6464269184E+01      0.1147496906E+02
          0                 4           2             4    7     1      -0.6751201889E-01       4    6    1        -0.3865084882E+01      0.7988169556E+01
          0                 5           2             4    8     1      -0.1288259385E-01       4    8    1        -0.7190512800E+00      0.1088072918E+01
          0                 6           2             4    8     1      -0.3087004574E-02       4    8    1        -0.1719953793E+00      0.2592390006E+00
          0                 7           2             4    8     1      -0.7397030752E-03       4    8    1        -0.4120459447E-01      0.6202979010E-01
          0                 8           2             4    8     1      -0.1772409836E-03       4    8    1        -0.9872653718E-02      0.1484359715E-01
          0                 9           1             4    8     1      -0.4246757239E-04       4    8    1        -0.2365490183E-02      0.3551991754E-02

    ------------------------------------------------
       NWT REQUIRED            9 OUTER ITERATIONS 
       AND A TOTAL OF         17 INNER ITERATIONS.
    ------------------------------------------------

 NO OUTPUT CONTROL FOR STRESS PERIOD    9   TIME STEP    5
 
 SOLVING FOR HEAD 
                                                   Max.-Head-Change                         Max.-Flux-Residual
  Residual-Control   Outer-Iter.   Inner-Iter.     Column Row Layer    Maximum-Head-Change  Column Row Layer    Maximum-Flux-Residual          L2-NORM 
          0                 1           2             5    8     1       0.1329469916E+01       5    8    1         0.7311041912E+02      0.8302182117E+02
          0                 2           2             5    8     1       0.7100022626E+00       5    8    1         0.3914480507E+02      0.3976822991E+02
          0                 3           2             5    8     1       0.3116826784E+00       5    8    1         0.1710029995E+02      0.1856434133E+02
          0                 4           2             5    7     1      -0.1828418907E+01       4    6    1        -0.1000604556E+03      0.2424753162E+03
          0                 5           2             5    8     1      -0.7715421669E+00       5    8    1        -0.4377644933E+02      0.4382102519E+02
          0                 6           2             5    8     1      -0.4529167263E+00       5    8    1        -0.2568061828E+02      0.2568074060E+02
          0                 7           2             5    8     1      -0.2658819874E+00       5    8    1        -0.1507478707E+02      0.1507482210E+02
          0                 8           2             5    8     1      -0.1560866203E+00       5    8    1        -0.8849272628E+01      0.8849293651E+01
          0                 9           2             5    8     1      -0.9163152073E-01       5    8    1        -0.5194852672E+01      0.5194865077E+01
          0                10           2             5    8     1      -0.5379282778E-01       5    8    1        -0.3049601413E+01      0.3049608719E+01
                                                   Max.-Head-Change                         Max.-Flux-Residual
  Residual-Control   Outer-Iter.   Inner-Iter.     Column Row Layer    Maximum-Head-Change  Column Row Layer    Maximum-Flux-Residual          L2-NORM 
          0                11           2             5    8     1      -0.3157932417E-01       5    8    1        -0.1790252151E+01      0.1790256447E+01
          0                12           2             5    8     1      -0.1853870986E-01       5    8    1        -0.1050956886E+01      0.1050959411E+01
          0                13           2             5    8     1      -0.1088313359E-01       5    8    1        -0.6169559623E+00      0.6169574455E+00
          0                14           1             5    8     1      -0.6388897604E-02       5    8    1        -0.3621774551E+00      0.3621783261E+00
          0                15           1             5    8     1      -0.3750552577E-02       5    8    1        -0.2126112769E+00      0.2126117884E+00
          0                16           1             5    8     1      -0.2201718850E-02       5    8    1        -0.1248097784E+00      0.1248100787E+00
          0                17           1             5    8     1      -0.1292485512E-02       5    8    1        -0.7326697194E-01      0.7326714821E-01
          0                18           1             5    8     1      -0.7587290194E-03       5    8    1        -0.4300957170E-01      0.4300967518E-01
          0                19           1             5    8     1      -0.4453945284E-03       5    8    1        -0.2524754738E-01      0.2524760813E-01
          0                20           1             5    8     1      -0.2614569674E-03       5    8    1        -0.1482075927E-01      0.1482079493E-01
                                                   Max.-Head-Change                         Max.-Flux-Residual
  Residual-Control   Outer-Iter.   Inner-Iter.     Column Row Layer    Maximum-Head-Change  Column Row Layer    Maximum-Flux-Residual          L2-NORM 
          0                21           1             5    8     1      -0.1534803271E-03       5    8    1        -0.8699992451E-02      0.8700013387E-02
          0                22           1             5    8     1      -0.9009534714E-04       5    8    1        -0.5106983496E-02      0.5106995783E-02

    ------------------------------------------------
       NWT REQUIRED           22 OUTER ITERATIONS 
       AND A TOTAL OF         35 INNER ITERATIONS.
    ------------------------------------------------

 NO OUTPUT CONTROL FOR STRESS PERIOD    9   TIME STEP    6
 
 SOLVING FOR HEAD 
                                                   Max.-Head-Change                         Max.-Flux-Residual
  Residual-Control   Outer-Iter.   Inner-Iter.     Column Row Layer    Maximum-Head-Change  Column Row Layer    Maximum-Flux-Residual          L2-NORM 
          0                 1           2             5    8     1       0.1311930919E+01       5    8    1         0.7213405271E+02      0.8388201079E+02
          0                 2           2             5    8     1       0.2094786718E+00       5    8    1         0.1168816780E+02      0.1690444404E+02
          0                 3           2             5    8     1       0.1018302226E+00       5    8    1         0.5516072842E+01      0.9474394938E+01
          0                 4           2             4    7     1      -0.6827112650E-01       4    6    1        -0.3871366012E+01      0.9012991487E+01
          0                 5           2             5    8     1      -0.1092890637E-01       5    8    1        -0.6211164866E+00      0.6303817595E+00
          0                 6           1             5    8     1      -0.2560182029E-02       5    8    1        -0.1451740506E+00      0.1451798171E+00
          0                 7           1             5    8     1      -0.5997231521E-03       5    8    1        -0.3400006228E-01      0.3400183977E-01
          0                 8           1             5    8     1      -0.1404809156E-03       5    8    1        -0.7963934846E-02      0.7964489497E-02
          0                 9           1             5    8     1      -0.3290565414E-04       5    8    1        -0.1865409537E-02      0.1865545788E-02

    ------------------------------------------------
       NWT REQUIRED            9 OUTER ITERATIONS 
       AND A TOTAL OF         14 INNER ITERATIONS.
    ------------------------------------------------

 NO OUTPUT CONTROL FOR STRESS PERIOD    9   TIME STEP    7
 
 SOLVING FOR HEAD 
                                                   Max.-Head-Change                         Max.-Flux-Residual
  Residual-Control   Outer-Iter.   Inner-Iter.     Column Row Layer    Maximum-Head-Change  Column Row Layer    Maximum-Flux-Residual          L2-NORM 
          0                 1           2             4    8     1       0.1492892431E+01       4    8    1         0.8072462230E+02      0.1144291054E+03
          0                 2           2             4    8     1       0.8175319343E+00       4    8    1         0.4437230367E+02      0.5968008110E+02
          0                 3           2             5    7     1       0.3600426088E+00       5    7    1         0.1946479994E+02      0.3053633251E+02
          0                 4           2             5    8     1      -0.1796528855E+01       4    6    1        -0.1000464212E+03      0.2344722981E+03
          0                 5           2             5    7     1      -0.9794080919E+00       5    7    1        -0.5473382816E+02      0.8608698079E+02
          0                 6           2             5    7     1      -0.5849560636E+00       5    7    1        -0.3265725521E+02      0.5138618088E+02
          0                 7           2             4    8     1      -0.2485629160E+00       4    8    1        -0.1385006074E+02      0.1593377913E+02
          0                 8           2             4    8     1      -0.1487379140E+00       4    8    1        -0.8289688344E+01      0.8308101849E+01
          0                 9           2             4    8     1      -0.8900354300E-01       4    8    1        -0.4960350111E+01      0.4960409146E+01
          0                10           2             4    8     1      -0.5325887037E-01       4    8    1        -0.2968178330E+01      0.2968183530E+01
                                                   Max.-Head-Change                         Max.-Flux-Residual
  Residual-Control   Outer-Iter.   Inner-Iter.     Column Row Layer    Maximum-Head-Change  Column Row Layer    Maximum-Flux-Residual          L2-NORM 
          0                11           2             4    8     1      -0.3186947740E-01       4    8    1        -0.1776098849E+01      0.1776101950E+01
          0                12           2             4    8     1      -0.1907022614E-01       4    8    1        -0.1062778855E+01      0.1062780712E+01
          0                13           2             4    8     1      -0.1141128099E-01       4    8    1        -0.6359409085E+00      0.6359420198E+00
          0                14           2             4    8     1      -0.6828266440E-02       4    8    1        -0.3805295442E+00      0.3805302093E+00
          0                15           2             4    8     1      -0.4085864220E-02       4    8    1        -0.2276971342E+00      0.2276975322E+00
          0                16           2             4    8     1      -0.2444864298E-02       4    8    1        -0.1362461370E+00      0.1362463752E+00
          0                17           2             4    8     1      -0.1462927864E-02       4    8    1        -0.8152451245E-01      0.8152465496E-01
          0                18           2             4    8     1      -0.8753633707E-03       4    8    1        -0.4878087216E-01      0.4878095744E-01
          0                19           2             4    8     1      -0.5237826645E-03       4    8    1        -0.2918826123E-01      0.2918831225E-01
          0                20           2             4    8     1      -0.3134087796E-03       4    8    1        -0.1746482291E-01      0.1746485344E-01
                                                   Max.-Head-Change                         Max.-Flux-Residual
  Residual-Control   Outer-Iter.   Inner-Iter.     Column Row Layer    Maximum-Head-Change  Column Row Layer    Maximum-Flux-Residual          L2-NORM 
          0                21           2             4    8     1      -0.1875290172E-03       4    8    1        -0.1045002759E-01      0.1045004586E-01
          0                22           2             4    8     1      -0.1122078074E-03       4    8    1        -0.6252705463E-02      0.6252716398E-02
          0                23           1             4    8     1      -0.6713901324E-04       4    8    1        -0.3741241876E-02      0.3741248442E-02

    ------------------------------------------------
       NWT REQUIRED           23 OUTER ITERATIONS 
       AND A TOTAL OF         45 INNER ITERATIONS.
    ------------------------------------------------

 NO OUTPUT CONTROL FOR STRESS PERIOD    9   TIME STEP    8
 
 SOLVING FOR HEAD 
                                                   Max.-Head-Change                         Max.-Flux-Residual
  Residual-Control   Outer-Iter.   Inner-Iter.     Column Row Layer    Maximum-Head-Change  Column Row Layer    Maximum-Flux-Residual          L2-NORM 
          0                 1           2             5    6     1       0.1701960047E+01       5    6    1         0.9242621848E+02      0.1467380396E+03
          0                 2           2             5    6     1       0.3002325641E+00       5    6    1         0.1638919826E+02      0.2647893628E+02
          0                 3           2             5    6     1       0.1226126519E+00       5    6    1         0.6609803305E+01      0.1216587698E+02
          0                 4           2             4    7     1      -0.6745330025E-01       4    6    1        -0.3865772298E+01      0.7861034369E+01
          0                 5           2             4    8     1      -0.1137709943E-01       4    8    1        -0.6351166142E+00      0.1031460531E+01
          0                 6           2             4    8     1      -0.2726500310E-02       4    8    1        -0.1518984750E+00      0.2456184349E+00
          0                 7           2             4    8     1      -0.6533796649E-03       4    8    1        -0.3639268830E-01      0.5876333525E-01
          0                 8           2             4    8     1      -0.1565712729E-03       4    8    1        -0.8720491707E-02      0.1406024623E-01
          0                 9           1             4    8     1      -0.3751844323E-04       4    8    1        -0.2089622132E-02      0.3364137726E-02

    ------------------------------------------------
       NWT REQUIRED            9 OUTER ITERATIONS 
       AND A TOTAL OF         17 INNER ITERATIONS.
    ------------------------------------------------

 NO OUTPUT CONTROL FOR STRESS PERIOD    9   TIME STEP    9
 
 SOLVING FOR HEAD 
                                                   Max.-Head-Change                         Max.-Flux-Residual
  Residual-Control   Outer-Iter.   Inner-Iter.     Column Row Layer    Maximum-Head-Change  Column Row Layer    Maximum-Flux-Residual          L2-NORM 
          0                 1           2             4    7     1       0.1374699618E+01       4    7    1         0.7392504571E+02      0.1023781092E+03
          0                 2           2             5    8     1       0.5105739865E+00       5    8    1         0.2813000091E+02      0.4009428148E+02
          0                 3           2             5    8     1       0.3498559220E+00       5    8    1         0.1919999946E+02      0.2545031389E+02
          0                 4           2             4    7     1      -0.1828005495E+01       5    6    1        -0.9917708140E+02      0.2354361989E+03
          0                 5           2             4    6     1      -0.9548881554E+00       5    8    1        -0.5406965618E+02      0.8201956480E+02
          0                 6           2             5    8     1      -0.5599613885E+00       5    8    1        -0.3173662299E+02      0.3729278173E+02
          0                 7           2             4    7     1      -0.2051907456E+00       4    7    1        -0.1145527352E+02      0.1558201658E+02
          0                 8           2             4    7     1      -0.1224846261E+00       4    7    1        -0.6841802802E+01      0.6881672423E+01
          0                 9           2             4    7     1      -0.7311440505E-01       4    7    1        -0.4083809251E+01      0.4083925418E+01
          0                10           2             4    7     1      -0.4364372601E-01       4    7    1        -0.2437711264E+01      0.2437713265E+01
                                                   Max.-Head-Change                         Max.-Flux-Residual
  Residual-Control   Outer-Iter.   Inner-Iter.     Column Row Layer    Maximum-Head-Change  Column Row Layer    Maximum-Flux-Residual          L2-NORM 
          0                11           2             4    7     1      -0.2605182111E-01       4    7    1        -0.1455103746E+01      0.1455104930E+01
          0                12           2             4    7     1      -0.1555076275E-01       4    7    1        -0.8685671510E+00      0.8685678580E+00
          0                13           2             4    7     1      -0.9282449859E-02       4    7    1        -0.5184539299E+00      0.5184543519E+00
          0                14           1             4    7     1      -0.5540778857E-02       4    7    1        -0.3094669451E+00      0.3094671970E+00
          0                15           1             4    7     1      -0.3307320621E-02       4    7    1        -0.1847207406E+00      0.1847208910E+00
          0                16           1             4    7     1      -0.1974145008E-02       4    7    1        -0.1102590729E+00      0.1102591626E+00
          0                17           1             4    7     1      -0.1178362917E-02       4    7    1        -0.6581278727E-01      0.6581284086E-01
          0                18           1             4    7     1      -0.7033578620E-03       4    7    1        -0.3928289618E-01      0.3928292819E-01
          0                19           1             4    7     1      -0.4198275042E-03       4    7    1        -0.2344736145E-01      0.2344738061E-01
          0                20           1             4    7     1      -0.2505893957E-03       4    7    1        -0.1399528412E-01      0.1399529560E-01
                                                   Max.-Head-Change                         Max.-Flux-Residual
  Residual-Control   Outer-Iter.   Inner-Iter.     Column Row Layer    Maximum-Head-Change  Column Row Layer    Maximum-Flux-Residual          L2-NORM 
          0                21           1             4    7     1      -0.1495724993E-03       4    7    1        -0.8353466234E-02      0.8353473096E-02
          0                22           1             4    7     1      -0.8927668803E-04       4    7    1        -0.4985962217E-02      0.4985966678E-02

    ------------------------------------------------
       NWT REQUIRED           22 OUTER ITERATIONS 
       AND A TOTAL OF         35 INNER ITERATIONS.
    ------------------------------------------------

 NO OUTPUT CONTROL FOR STRESS PERIOD    9   TIME STEP   10
 
 SOLVING FOR HEAD 
                                                   Max.-Head-Change                         Max.-Flux-Residual
  Residual-Control   Outer-Iter.   Inner-Iter.     Column Row Layer    Maximum-Head-Change  Column Row Layer    Maximum-Flux-Residual          L2-NORM 
          0                 1           2             5    8     1       0.1550009196E+01       5    8    1         0.8528369916E+02      0.1151413401E+03
          0                 2           2             5    8     1       0.2602808346E+00       5    8    1         0.1447852074E+02      0.2002546286E+02
          0                 3           2             5    8     1       0.1126681761E+00       5    8    1         0.6113095630E+01      0.1076231083E+02
          0                 4           2             5    7     1      -0.6672320056E-01       5    6    1        -0.3866551416E+01      0.8059415921E+01
          0                 5           2             4    6     1      -0.1225644633E-01       4    6    1        -0.6780667496E+00      0.1122637401E+01
          0                 6           2             4    6     1      -0.2968602080E-02       4    6    1        -0.1640472394E+00      0.2687812488E+00
          0                 7           2             4    6     1      -0.7190462605E-03       4    6    1        -0.3972873393E-01      0.6464244056E-01
          0                 8           2             4    6     1      -0.1741718992E-03       4    6    1        -0.9622606117E-02      0.1555500631E-01
          0                 9           1             4    7     1      -0.4226048304E-04       4    6    1        -0.2330786491E-02      0.3744612298E-02

    ------------------------------------------------
       NWT REQUIRED            9 OUTER ITERATIONS 
       AND A TOTAL OF         17 INNER ITERATIONS.
    ------------------------------------------------

 NO OUTPUT CONTROL FOR STRESS PERIOD    9   TIME STEP   11
 
 SOLVING FOR HEAD 
                                                   Max.-Head-Change                         Max.-Flux-Residual
  Residual-Control   Outer-Iter.   Inner-Iter.     Column Row Layer    Maximum-Head-Change  Column Row Layer    Maximum-Flux-Residual          L2-NORM 
          0                 1           2             4    8     1       0.1166609077E+01       4    8    1         0.6300439899E+02      0.8906091372E+02
          0                 2           2             4    8     1       0.6291693546E+00       4    8    1         0.3409142225E+02      0.4327734930E+02
          0                 3           2             4    8     1       0.4262788065E+00       4    8    1         0.2302268491E+02      0.3090866051E+02
          0                 4           2             4    7     1      -0.1841298888E+01       5    8    1        -0.9909171677E+02      0.2317458850E+03
          0                 5           2             5    7     1      -0.1018306274E+01       5    7    1        -0.5686727935E+02      0.9589703070E+02
          0                 6           2             4    8     1      -0.5739347207E+00       4    8    1        -0.3198667876E+02      0.3248180248E+02
          0                 7           2             4    8     1      -0.3434813761E+00       4    8    1        -0.1914197577E+02      0.1914602238E+02
          0                 8           2             4    8     1      -0.2055644176E+00       4    8    1        -0.1145558077E+02      0.1145560471E+02
          0                 9           2             4    8     1      -0.4422538976E-02       4    8    1        -0.2462633683E+00      0.2464758473E+00
          0                10           2             4    8     1       0.3013728693E-03       4    8    1         0.1726458112E-01      0.1726495240E-01
          0                11           1             4    8     1      -0.1200613010E-04       4    8    1        -0.7072129265E-03      0.7073543821E-03

    ------------------------------------------------
       NWT REQUIRED           11 OUTER ITERATIONS 
       AND A TOTAL OF         21 INNER ITERATIONS.
    ------------------------------------------------

 NO OUTPUT CONTROL FOR STRESS PERIOD    9   TIME STEP   12
 
 SOLVING FOR HEAD 
                                                   Max.-Head-Change                         Max.-Flux-Residual
  Residual-Control   Outer-Iter.   Inner-Iter.     Column Row Layer    Maximum-Head-Change  Column Row Layer    Maximum-Flux-Residual          L2-NORM 
          0                 1           2             5    6     1       0.1669071318E+01       5    6    1         0.9058606156E+02      0.1564124192E+03
          0                 2           2             5    6     1       0.2932124118E+00       5    6    1         0.1600611466E+02      0.2846845682E+02
          0                 3           2             5    6     1       0.1211136409E+00       5    6    1         0.6527101521E+01      0.1260245224E+02
          0                 4           2             4    7     1      -0.6740410871E-01       4    6    1        -0.3866338191E+01      0.7797710363E+01
          0                 5           2             5    7     1      -0.1044354250E-01       5    7    1        -0.5845645471E+00      0.1002294162E+01
          0                 6           2             4    8     1      -0.2497159134E-02       5    7    1        -0.1393398223E+00      0.2386089913E+00
          0                 7           2             4    8     1      -0.5984947696E-03       4    8    1        -0.3333194874E-01      0.5708423186E-01
          0                 8           2             4    8     1      -0.1434368923E-03       4    8    1        -0.7988046581E-02      0.1365800026E-01
          0                 9           1             4    8     1      -0.3437537725E-04       4    8    1        -0.1914349558E-02      0.3267777055E-02

    ------------------------------------------------
       NWT REQUIRED            9 OUTER ITERATIONS 
       AND A TOTAL OF         17 INNER ITERATIONS.
    ------------------------------------------------

 NO OUTPUT CONTROL FOR STRESS PERIOD    9   TIME STEP   13
 
 SOLVING FOR HEAD 
                                                   Max.-Head-Change                         Max.-Flux-Residual
  Residual-Control   Outer-Iter.   Inner-Iter.     Column Row Layer    Maximum-Head-Change  Column Row Layer    Maximum-Flux-Residual          L2-NORM 
          0                 1           2             4    7     1       0.1486587663E+01       4    7    1         0.7964715757E+02      0.1062669973E+03
          0                 2           2             4    7     1       0.8245401579E+00       4    7    1         0.4434768360E+02      0.5600859565E+02
          0                 3           2             4    6     1       0.4309559616E+00       4    6    1         0.2316996749E+02      0.3062262409E+02
          0                 4           2             5    7     1      -0.1827884483E+01       5    8    1        -0.1000564523E+03      0.2368036546E+03
          0                 5           2             4    6     1      -0.9601586396E+00       4    6    1        -0.5320402124E+02      0.6799657296E+02
          0                 6           2             4    6     1      -0.5785099254E+00       4    6    1        -0.3204556336E+02      0.4107928882E+02
          0                 7           2             4    6     1      -0.3486006520E+00       4    6    1        -0.1930820013E+02      0.2484264102E+02
          0                 8           2             4    7     1      -0.1711004546E+00       4    7    1        -0.9505055110E+01      0.1022714893E+02
          0                 9           2             4    7     1      -0.1021475306E+00       4    7    1        -0.5708296698E+01      0.5714427312E+01
          0                10           2             4    7     1      -0.6098192199E-01       4    7    1        -0.3405513497E+01      0.3405544071E+01
                                                   Max.-Head-Change                         Max.-Flux-Residual
  Residual-Control   Outer-Iter.   Inner-Iter.     Column Row Layer    Maximum-Head-Change  Column Row Layer    Maximum-Flux-Residual          L2-NORM 
          0                11           2             4    7     1      -0.3640591169E-01       4    7    1        -0.2033126268E+01      0.2033131073E+01
          0                12           2             4    7     1      -0.2173402114E-01       4    7    1        -0.1213746366E+01      0.1213749318E+01
          0                13           2             4    7     1      -0.1297494685E-01       4    7    1        -0.7245848930E+00      0.7245866543E+00
          0                14           2             4    7     1      -0.7745837652E-02       4    7    1        -0.4325615860E+00      0.4325626375E+00
          0                15           1             4    7     1      -0.4624113414E-02       4    7    1        -0.2582283593E+00      0.2582289870E+00
          0                16           1             4    7     1      -0.2760487844E-02       4    7    1        -0.1541548575E+00      0.1541552322E+00
          0                17           1             4    7     1      -0.1647936487E-02       4    7    1        -0.9202541220E-01      0.9202563589E-01
          0                18           1             4    7     1      -0.9837672596E-03       4    7    1        -0.5493581854E-01      0.5493595207E-01
          0                19           1             4    7     1      -0.5872750136E-03       4    7    1        -0.3279447594E-01      0.3279455565E-01
          0                20           1             4    7     1      -0.3505806516E-03       4    7    1        -0.1957686087E-01      0.1957690846E-01
                                                   Max.-Head-Change                         Max.-Flux-Residual
  Residual-Control   Outer-Iter.   Inner-Iter.     Column Row Layer    Maximum-Head-Change  Column Row Layer    Maximum-Flux-Residual          L2-NORM 
          0                21           1             4    7     1      -0.2092818788E-03       4    7    1        -0.1168645191E-01      0.1168648031E-01
          0                22           1             4    7     1      -0.1249316768E-03       4    7    1        -0.6976210223E-02      0.6976227178E-02
          0                23           1             4    7     1      -0.7457800639E-04       4    7    1        -0.4164412126E-02      0.4164422248E-02

    ------------------------------------------------
       NWT REQUIRED           23 OUTER ITERATIONS 
       AND A TOTAL OF         37 INNER ITERATIONS.
    ------------------------------------------------

 NO OUTPUT CONTROL FOR STRESS PERIOD    9   TIME STEP   14
 
 SOLVING FOR HEAD 
                                                   Max.-Head-Change                         Max.-Flux-Residual
  Residual-Control   Outer-Iter.   Inner-Iter.     Column Row Layer    Maximum-Head-Change  Column Row Layer    Maximum-Flux-Residual          L2-NORM 
          0                 1           2             4    6     1       0.1877687199E+01       4    6    1         0.1011921500E+03      0.1366262349E+03
          0                 2           2             4    6     1       0.3425852196E+00       4    6    1         0.1854655296E+02      0.2970938407E+02
          0                 3           2             5    8     1       0.1412685147E+00       5    8    1         0.7688762305E+01      0.1346645840E+02
          0                 4           2             4    8     1      -0.6642242739E-01       5    6    1        -0.3864165819E+01      0.7570438614E+01
          0                 5           2             4    7     1      -0.1088571483E-01       4    7    1        -0.6018496846E+00      0.9508626673E+00
          0                 6           2             4    7     1      -0.2642351703E-02       5    8    1        -0.1489970355E+00      0.2456474440E+00
          0                 7           2             5    8     1      -0.7886298107E-03       5    8    1        -0.4467765780E-01      0.6514068911E-01
          0                 8           2             5    8     1      -0.2364833765E-03       5    8    1        -0.1339800854E-01      0.1766176818E-01
          0                 9           1             5    8     1      -0.7090737385E-04       5    8    1        -0.4017516737E-02      0.4893446721E-02

    ------------------------------------------------
       NWT REQUIRED            9 OUTER ITERATIONS 
       AND A TOTAL OF         17 INNER ITERATIONS.
    ------------------------------------------------

 NO OUTPUT CONTROL FOR STRESS PERIOD    9   TIME STEP   15
 
 SOLVING FOR HEAD 
                                                   Max.-Head-Change                         Max.-Flux-Residual
  Residual-Control   Outer-Iter.   Inner-Iter.     Column Row Layer    Maximum-Head-Change  Column Row Layer    Maximum-Flux-Residual          L2-NORM 
          0                 1           2             4    6     1       0.3645872676E+00       4    6    1         0.1952445460E+02      0.4512525175E+02
          0                 2           2             5    6     1      -0.8498442803E-01       5    6    1        -0.4786082296E+01      0.9643039019E+01
          0                 3           2             5    8     1       0.1026608416E+00       5    8    1         0.5564367142E+01      0.9181280592E+01
          0                 4           2             4    7     1      -0.1850058351E+01       5    6    1        -0.1000600536E+03      0.2430268013E+03
          0                 5           2             5    8     1      -0.1839771455E+00       5    8    1        -0.1045992833E+02      0.1069511208E+02
          0                 6           2             5    8     1       0.1252759267E-01       5    8    1         0.7299472750E+00      0.7336679126E+00
          0                 7           1             5    8     1      -0.4986129594E-03       5    8    1        -0.2989249307E-01      0.3005140938E-01
          0                 8           1             5    8     1       0.6152661715E-05       5    8    1         0.3790291221E-03      0.3809504165E-03

    ------------------------------------------------
       NWT REQUIRED            8 OUTER ITERATIONS 
       AND A TOTAL OF         14 INNER ITERATIONS.
    ------------------------------------------------

 NO OUTPUT CONTROL FOR STRESS PERIOD    9   TIME STEP   16
 
 SOLVING FOR HEAD 
                                                   Max.-Head-Change                         Max.-Flux-Residual
  Residual-Control   Outer-Iter.   Inner-Iter.     Column Row Layer    Maximum-Head-Change  Column Row Layer    Maximum-Flux-Residual          L2-NORM 
          0                 1           2             5    8     1       0.1176967051E+01       5    8    1         0.6463283478E+02      0.7930532413E+02
          0                 2           2             5    8     1       0.5292289603E+00       5    8    1         0.2926948482E+02      0.3108953895E+02
          0                 3           2             5    8     1       0.2053392810E+00       5    8    1         0.1123513727E+02      0.1317066510E+02
          0                 4           2             4    7     1      -0.6804132653E-01       4    6    1        -0.3871663879E+01      0.7880480604E+01
          0                 5           2             5    6     1      -0.1777879477E-01       5    6    1        -0.1065763009E+01      0.1459251231E+01
          0                 6           2             5    6     1      -0.6001013429E-02       5    6    1        -0.3592321315E+00      0.4954220653E+00
          0                 7           2             5    6     1      -0.2025522148E-02       5    6    1        -0.1212385744E+00      0.1686926048E+00
          0                 8           2             5    6     1      -0.6836599478E-03       5    6    1        -0.4091993968E-01      0.5745688198E-01
          0                 9           2             4    8     1      -0.2331716922E-03       5    6    1        -0.1381098800E-01      0.1957412035E-01
          0                10           1             4    8     1      -0.8027344079E-04       4    8    1        -0.4715836943E-02      0.6669735074E-02

    ------------------------------------------------
       NWT REQUIRED           10 OUTER ITERATIONS 
       AND A TOTAL OF         19 INNER ITERATIONS.
    ------------------------------------------------

 NO OUTPUT CONTROL FOR STRESS PERIOD    9   TIME STEP   17
 
 SOLVING FOR HEAD 
                                                   Max.-Head-Change                         Max.-Flux-Residual
  Residual-Control   Outer-Iter.   Inner-Iter.     Column Row Layer    Maximum-Head-Change  Column Row Layer    Maximum-Flux-Residual          L2-NORM 
          0                 1           2             4    8     1       0.8497858751E+00       4    8    1         0.4574080166E+02      0.6837768611E+02
          0                 2           2             4    8     1       0.4436309260E+00       4    8    1         0.2398147540E+02      0.3060247737E+02
          0                 3           2             4    8     1       0.3181732655E+00       4    8    1         0.1710523139E+02      0.2350053525E+02
          0                 4           2             4    7     1      -0.1758035109E+01       4    6    1        -0.1000540405E+03      0.2343583000E+03
          0                 5           2             4    8     1      -0.9991404816E+00       4    8    1        -0.5535249201E+02      0.7481346535E+02
          0                 6           2             4    8     1      -0.4071168949E+00       4    8    1        -0.2270801540E+02      0.2297951539E+02
          0                 7           2             4    8     1       0.2772566465E-01       4    8    1         0.1589454276E+01      0.1596467664E+01
          0                 8           2             4    8     1      -0.1103779927E-02       4    8    1        -0.6502775697E-01      0.6507654188E-01
          0                 9           1             4    8     1       0.1363024999E-04       4    8    1         0.8251018539E-03      0.8256030778E-03

    ------------------------------------------------
       NWT REQUIRED            9 OUTER ITERATIONS 
       AND A TOTAL OF         17 INNER ITERATIONS.
    ------------------------------------------------

 NO OUTPUT CONTROL FOR STRESS PERIOD    9   TIME STEP   18
 
 SOLVING FOR HEAD 
                                                   Max.-Head-Change                         Max.-Flux-Residual
  Residual-Control   Outer-Iter.   Inner-Iter.     Column Row Layer    Maximum-Head-Change  Column Row Layer    Maximum-Flux-Residual          L2-NORM 
          0                 1           2             4    8     1       0.1548691327E+01       4    8    1         0.8289953779E+02      0.1553796100E+03
          0                 2           2             5    7     1       0.4845572941E+00       5    7    1         0.2606714428E+02      0.4800726979E+02
          0                 3           2             5    7     1       0.1990003912E+00       5    7    1         0.1061938343E+02      0.2041570230E+02
          0                 4           2             4    7     1      -0.6659307369E-01       4    6    1        -0.3863332112E+01      0.5723205669E+01
          0                 5           2             4    8     1      -0.6235037541E-02       4    8    1        -0.3444176202E+00      0.5632886668E+00
          0                 6           2             4    8     1      -0.1933721880E-02       4    8    1        -0.1066355291E+00      0.1727032268E+00
          0                 7           2             4    8     1      -0.5997596402E-03       4    8    1        -0.3306787567E-01      0.5343827858E-01
          0                 8           2             4    8     1      -0.1860321652E-03       4    8    1        -0.1025598604E-01      0.1654007326E-01
          0                 9           1             4    8     1      -0.5770660635E-04       4    8    1        -0.3181125910E-02      0.5120505676E-02

    ------------------------------------------------
       NWT REQUIRED            9 OUTER ITERATIONS 
       AND A TOTAL OF         17 INNER ITERATIONS.
    ------------------------------------------------

 NO OUTPUT CONTROL FOR STRESS PERIOD    9   TIME STEP   19
 
 SOLVING FOR HEAD 
                                                   Max.-Head-Change                         Max.-Flux-Residual
  Residual-Control   Outer-Iter.   Inner-Iter.     Column Row Layer    Maximum-Head-Change  Column Row Layer    Maximum-Flux-Residual          L2-NORM 
          0                 1           2             4    7     1       0.1242274079E+01       4    7    1         0.6560643329E+02      0.1181316333E+03
          0                 2           2             4    7     1       0.6283198753E+00       4    6    1         0.3313367356E+02      0.6114139898E+02
          0                 3           2             4    6     1       0.4001848323E+00       4    6    1         0.2139624906E+02      0.3857142847E+02
          0                 4           2             4    7     1      -0.1786040024E+01       4    7    1        -0.9597024030E+02      0.2268380807E+03
          0                 5           2             5    6     1      -0.1004777052E+01       5    6    1        -0.5542654689E+02      0.1171841651E+03
          0                 6           2             4    8     1      -0.5978936498E+00       4    8    1        -0.3304002241E+02      0.5256627850E+02
          0                 7           2             4    6     1      -0.3322842596E+00       4    6    1        -0.1838890481E+02      0.2719489878E+02
          0                 8           2             4    7     1      -0.1778016671E+00       4    7    1        -0.9954229967E+01      0.1006053486E+02
          0                 9           2             4    7     1       0.8704047137E-02       4    7    1         0.5009148461E+00      0.5051595901E+00
          0                10           1             4    7     1      -0.3466706410E-03       4    7    1        -0.2047860656E-01      0.2050925602E-01
          0                11           1             4    7     1       0.4287293361E-05       4    7    1         0.2599495003E-03      0.2600466207E-03

    ------------------------------------------------
       NWT REQUIRED           11 OUTER ITERATIONS 
       AND A TOTAL OF         20 INNER ITERATIONS.
    ------------------------------------------------

 NO OUTPUT CONTROL FOR STRESS PERIOD    9   TIME STEP   20
 
 SOLVING FOR HEAD 
                                                   Max.-Head-Change                         Max.-Flux-Residual
  Residual-Control   Outer-Iter.   Inner-Iter.     Column Row Layer    Maximum-Head-Change  Column Row Layer    Maximum-Flux-Residual          L2-NORM 
          0                 1           2             5    6     1       0.1516864588E+01       5    6    1         0.8164318500E+02      0.1773365716E+03
          0                 2           2             5    8     1       0.3855926864E+00       5    8    1         0.2065389973E+02      0.4492804803E+02
          0                 3           2             5    7     1       0.1719535023E+00       5    7    1         0.9101180919E+01      0.2070392212E+02
          0                 4           2             4    7     1      -0.2904696135E-01       4    7    1        -0.1572189194E+01      0.3088472311E+01
          0                 5           2             4    7     1      -0.9217219878E-02       4    7    1        -0.4988809371E+00      0.9744514155E+00
          0                 6           2             4    7     1      -0.2924662954E-02       4    7    1        -0.1583005751E+00      0.3075475615E+00
          0                 7           2             4    7     1      -0.9279469424E-03       4    7    1        -0.5022760394E-01      0.9707660175E-01
          0                 8           2             4    7     1      -0.2943997249E-03       4    7    1        -0.1593577626E-01      0.3064556283E-01
          0                 9           1             4    7     1      -0.9339309598E-04       4    7    1        -0.5055570005E-02      0.9675280432E-02

    ------------------------------------------------
       NWT REQUIRED            9 OUTER ITERATIONS 
       AND A TOTAL OF         17 INNER ITERATIONS.
    ------------------------------------------------

 NO OUTPUT CONTROL FOR STRESS PERIOD    9   TIME STEP   21
 
 SOLVING FOR HEAD 
                                                   Max.-Head-Change                         Max.-Flux-Residual
  Residual-Control   Outer-Iter.   Inner-Iter.     Column Row Layer    Maximum-Head-Change  Column Row Layer    Maximum-Flux-Residual          L2-NORM 
          0                 1           2             4    7     1       0.1821272515E+01       4    7    1         0.9643748028E+02      0.1604112330E+03
          0                 2           2             4    6     1       0.8856092687E+00       4    6    1         0.4727613346E+02      0.7935954959E+02
          0                 3           2             4    8     1       0.4372133961E+00       4    8    1         0.2335506938E+02      0.4154481329E+02
          0                 4           2             4    7     1      -0.1771343505E+01       4    7    1        -0.9518082976E+02      0.2245598454E+03
          0                 5           2             5    7     1      -0.1022812525E+01       5    7    1        -0.5598752347E+02      0.1144543530E+03
          0                 6           2             4    8     1      -0.5849215683E+00       4    8    1        -0.3242962303E+02      0.5143173600E+02
          0                 7           2             4    8     1      -0.3522746116E+00       4    8    1        -0.1949767526E+02      0.2605506601E+02
          0                 8           2             4    8     1      -0.2122107614E+00       4    8    1        -0.1174372947E+02      0.1572347185E+02
          0                 9           2             4    6     1      -0.8627728961E-01       4    6    1        -0.4773433330E+01      0.6381559559E+01
          0                10           2             4    6     1      -0.5199091444E-01       4    6    1        -0.2876224285E+01      0.3854700071E+01
                                                   Max.-Head-Change                         Max.-Flux-Residual
  Residual-Control   Outer-Iter.   Inner-Iter.     Column Row Layer    Maximum-Head-Change  Column Row Layer    Maximum-Flux-Residual          L2-NORM 
          0                11           2             4    6     1      -0.3133228241E-01       4    6    1        -0.1733207898E+01      0.2329348001E+01
          0                12           2             4    6     1      -0.1888379435E-01       4    6    1        -0.1044508884E+01      0.1407604028E+01
          0                13           2             4    6     1      -0.1138199116E-01       4    6    1        -0.6295152078E+00      0.8506123544E+00
          0                14           2             4    6     1      -0.6860853018E-02       4    6    1        -0.3794302962E+00      0.5140287043E+00
          0                15           2             4    6     1      -0.4135881098E-02       4    6    1        -0.2287118165E+00      0.3106326606E+00
          0                16           2             4    6     1      -0.2493372834E-02       4    6    1        -0.1378717172E+00      0.1877199865E+00
          0                17           2             4    6     1      -0.1503262635E-02       4    6    1        -0.8311720654E-01      0.1134428654E+00
          0                18           2             4    6     1      -0.9063797463E-03       4    6    1        -0.5011123154E-01      0.6855620729E-01
          0                19           2             4    6     1      -0.5465280516E-03       4    6    1        -0.3021390271E-01      0.4143038524E-01
          0                20           2             4    6     1      -0.3295648773E-03       4    6    1        -0.1821819879E-01      0.2503764299E-01
                                                   Max.-Head-Change                         Max.-Flux-Residual
  Residual-Control   Outer-Iter.   Inner-Iter.     Column Row Layer    Maximum-Head-Change  Column Row Layer    Maximum-Flux-Residual          L2-NORM 
          0                21           2             4    6     1      -0.1987443813E-03       4    6    1        -0.1098576157E-01      0.1513107921E-01
          0                22           2             4    6     1      -0.1198598040E-03       4    6    1        -0.6624914869E-02      0.9144249859E-02
          0                23           1             4    6     1      -0.7228968629E-04       4    6    1        -0.3995352740E-02      0.5526214311E-02

    ------------------------------------------------
       NWT REQUIRED           23 OUTER ITERATIONS 
       AND A TOTAL OF         45 INNER ITERATIONS.
    ------------------------------------------------

 NO OUTPUT CONTROL FOR STRESS PERIOD    9   TIME STEP   22
 
 SOLVING FOR HEAD 
                                                   Max.-Head-Change                         Max.-Flux-Residual
  Residual-Control   Outer-Iter.   Inner-Iter.     Column Row Layer    Maximum-Head-Change  Column Row Layer    Maximum-Flux-Residual          L2-NORM 
          0                 1           2             5    6     1       0.1494014475E+01       5    6    1         0.8047909863E+02      0.1715454894E+03
          0                 2           2             5    7     1       0.3685007303E+00       5    7    1         0.1960241757E+02      0.4119658159E+02
          0                 3           2             5    7     1       0.1664865200E+00       5    7    1         0.8831316582E+01      0.1950986604E+02
          0                 4           2             4    7     1      -0.3498532694E-01       4    7    1        -0.1899258921E+01      0.3504640724E+01
          0                 5           2             4    7     1      -0.1106320643E-01       4    7    1        -0.6004768950E+00      0.1105287396E+01
          0                 6           2             4    7     1      -0.3498992816E-02       4    7    1        -0.1898866511E+00      0.3487090335E+00
          0                 7           2             4    7     1      -0.1106780243E-02       4    7    1        -0.6005604152E-01      0.1100351704E+00
          0                 8           2             4    7     1      -0.3501275755E-03       4    7    1        -0.1899650194E-01      0.3472760369E-01
          0                 9           1             4    7     1      -0.1107717518E-03       4    7    1        -0.6009459655E-02      0.1096179255E-01
          0                10           1             4    7     1      -0.3504787132E-04       4    7    1        -0.1901224721E-02      0.3460530809E-02

    ------------------------------------------------
       NWT REQUIRED           10 OUTER ITERATIONS 
       AND A TOTAL OF         18 INNER ITERATIONS.
    ------------------------------------------------

 NO OUTPUT CONTROL FOR STRESS PERIOD    9   TIME STEP   23
 
 SOLVING FOR HEAD 
                                                   Max.-Head-Change                         Max.-Flux-Residual
  Residual-Control   Outer-Iter.   Inner-Iter.     Column Row Layer    Maximum-Head-Change  Column Row Layer    Maximum-Flux-Residual          L2-NORM 
          0                 1           2             4    7     1       0.2048493497E+01       4    7    1         0.1083956724E+03      0.1821731662E+03
          0                 2           2             4    8     1       0.7220171981E+00       4    8    1         0.3850850706E+02      0.7483979976E+02
          0                 3           2             4    8     1       0.4860542987E+00       4    8    1         0.2601106352E+02      0.4377580567E+02
          0                 4           2             4    7     1      -0.1784481584E+01       4    7    1        -0.9589992580E+02      0.2245334304E+03
          0                 5           2             5    7     1      -0.1008407766E+01       5    8    1        -0.5553383083E+02      0.1157102568E+03
          0                 6           2             5    6     1      -0.5799184636E+00       5    6    1        -0.3227224589E+02      0.5517935908E+02
          0                 7           2             4    8     1      -0.3345183020E+00       4    8    1        -0.1859840362E+02      0.2375143909E+02
          0                 8           2             4    8     1      -0.2002746185E+00       4    8    1        -0.1114599984E+02      0.1188641367E+02
          0                 9           2             4    8     1      -0.1198339825E+00       4    8    1        -0.6672184214E+01      0.7069890999E+01
          0                10           2             4    8     1      -0.7168108586E-01       4    8    1        -0.3991993853E+01      0.4224579886E+01
                                                   Max.-Head-Change                         Max.-Flux-Residual
  Residual-Control   Outer-Iter.   Inner-Iter.     Column Row Layer    Maximum-Head-Change  Column Row Layer    Maximum-Flux-Residual          L2-NORM 
          0                11           2             4    8     1      -0.4287082725E-01       4    8    1        -0.2387780859E+01      0.2525078166E+01
          0                12           2             4    8     1      -0.2563796121E-01       4    8    1        -0.1428032614E+01      0.1509326677E+01
          0                13           2             4    8     1      -0.1533153099E-01       4    8    1        -0.8539833481E+00      0.9021684880E+00
          0                14           2             4    8     1      -0.9168032777E-02       4    8    1        -0.5106728791E+00      0.5392451855E+00
          0                15           2             4    8     1      -0.5482258851E-02       4    8    1        -0.3053695002E+00      0.3223149933E+00
          0                16           2             4    8     1      -0.3278217587E-02       4    8    1        -0.1826004011E+00      0.1926511657E+00
          0                17           2             4    8     1      -0.1960252173E-02       4    8    1        -0.1091874924E+00      0.1151490803E+00
          0                18           2             4    8     1      -0.1172148363E-02       4    8    1        -0.6528901409E-01      0.6882519359E-01
          0                19           2             4    8     1      -0.7008901815E-03       4    8    1        -0.3903946587E-01      0.4113701428E-01
          0                20           2             4    8     1      -0.4190967142E-03       4    8    1        -0.2334341587E-01      0.2458762376E-01
                                                   Max.-Head-Change                         Max.-Flux-Residual
  Residual-Control   Outer-Iter.   Inner-Iter.     Column Row Layer    Maximum-Head-Change  Column Row Layer    Maximum-Flux-Residual          L2-NORM 
          0                21           2             4    8     1      -0.2505967862E-03       4    8    1        -0.1395795696E-01      0.1469599057E-01
          0                22           2             4    8     1      -0.1498420603E-03       4    8    1        -0.8345959497E-02      0.8783744656E-02
          0                23           1             4    8     1      -0.8959607586E-04       4    8    1        -0.4990311925E-02      0.5249997266E-02

    ------------------------------------------------
       NWT REQUIRED           23 OUTER ITERATIONS 
       AND A TOTAL OF         45 INNER ITERATIONS.
    ------------------------------------------------

 NO OUTPUT CONTROL FOR STRESS PERIOD    9   TIME STEP   24
 
 SOLVING FOR HEAD 
                                                   Max.-Head-Change                         Max.-Flux-Residual
  Residual-Control   Outer-Iter.   Inner-Iter.     Column Row Layer    Maximum-Head-Change  Column Row Layer    Maximum-Flux-Residual          L2-NORM 
          0                 1           2             5    7     1       0.1482374566E+01       5    6    1         0.7998882332E+02      0.1592530926E+03
          0                 2           2             5    7     1       0.3631460235E+00       5    7    1         0.1941932246E+02      0.3795076086E+02
          0                 3           2             5    7     1       0.1641810281E+00       5    7    1         0.8737325136E+01      0.1810360895E+02
          0                 4           2             4    7     1      -0.4540656930E-01       4    7    1        -0.2471244244E+01      0.4220025217E+01
          0                 5           2             4    7     1      -0.1431508999E-01       4    7    1        -0.7789068935E+00      0.1330102646E+01
          0                 6           2             4    7     1      -0.4514065260E-02       4    7    1        -0.2455664443E+00      0.4193813193E+00
          0                 7           2             4    7     1      -0.1423739386E-02       4    7    1        -0.7743704332E-01      0.1322599100E+00
          0                 8           2             4    7     1      -0.4491311558E-03       4    7    1        -0.2442395280E-01      0.4171912030E-01
          0                 9           2             4    7     1      -0.1417058103E-03       4    7    1        -0.7704803984E-02      0.1316188824E-01
          0                10           1             4    7     1      -0.4471635292E-04       4    7    1        -0.2430958660E-02      0.4153056485E-02

    ------------------------------------------------
       NWT REQUIRED           10 OUTER ITERATIONS 
       AND A TOTAL OF         19 INNER ITERATIONS.
    ------------------------------------------------

 NO OUTPUT CONTROL FOR STRESS PERIOD    9   TIME STEP   25
 
 SOLVING FOR HEAD 
                                                   Max.-Head-Change                         Max.-Flux-Residual
  Residual-Control   Outer-Iter.   Inner-Iter.     Column Row Layer    Maximum-Head-Change  Column Row Layer    Maximum-Flux-Residual          L2-NORM 
          0                 1           2             4    7     1       0.2122517498E+01       4    7    1         0.1121011654E+03      0.1963224037E+03
          0                 2           2             4    8     1       0.8009755116E+00       4    8    1         0.4279194102E+02      0.7660793765E+02
          0                 3           2             5    6     1       0.4184922398E+00       5    6    1         0.2256933916E+02      0.4311940714E+02
          0                 4           2             4    7     1      -0.1790059607E+01       4    6    1        -0.9636260726E+02      0.2255664692E+03
          0                 5           2             5    8     1      -0.1004421202E+01       5    8    1        -0.5549118229E+02      0.1121593028E+03
          0                 6           2             5    7     1      -0.5973337766E+00       5    7    1        -0.3312266903E+02      0.5536774212E+02
          0                 7           2             5    6     1      -0.3408745193E+00       5    6    1        -0.1907024466E+02      0.2856207492E+02
          0                 8           2             5    6     1      -0.2004035142E+00       5    6    1        -0.1134980955E+02      0.1509468079E+02
          0                 9           2             4    8     1      -0.1051100633E+00       4    8    1        -0.5852397604E+01      0.5905204396E+01
          0                10           2             4    8     1      -0.6286990017E-01       4    8    1        -0.3501573755E+01      0.3507276135E+01
                                                   Max.-Head-Change                         Max.-Flux-Residual
  Residual-Control   Outer-Iter.   Inner-Iter.     Column Row Layer    Maximum-Head-Change  Column Row Layer    Maximum-Flux-Residual          L2-NORM 
          0                11           2             4    8     1      -0.3759678540E-01       4    8    1        -0.2094295691E+01      0.2095627508E+01
          0                12           2             4    8     1      -0.2248072558E-01       4    8    1        -0.1252362731E+01      0.1252760758E+01
          0                13           2             4    8     1      -0.1344136971E-01       4    8    1        -0.7488213709E+00      0.7489735955E+00
          0                14           2             4    8     1      -0.8036403032E-02       4    8    1        -0.4477155276E+00      0.4477859805E+00
          0                15           2             4    8     1      -0.4804749888E-02       4    8    1        -0.2676777304E+00      0.2677144381E+00
          0                16           2             4    8     1      -0.2872591203E-02       4    8    1        -0.1600345819E+00      0.1600550013E+00
          0                17           2             4    8     1      -0.1717403820E-02       4    8    1        -0.9567747994E-01      0.9568923830E-01
          0                18           2             4    8     1      -0.1026756371E-02       4    8    1        -0.5720070023E-01      0.5720759421E-01
          0                19           2             4    8     1      -0.6138456736E-03       4    8    1        -0.3419711246E-01      0.3420119243E-01
          0                20           2             4    8     1      -0.3669847560E-03       4    8    1        -0.2044440083E-01      0.2044682718E-01
                                                   Max.-Head-Change                         Max.-Flux-Residual
  Residual-Control   Outer-Iter.   Inner-Iter.     Column Row Layer    Maximum-Head-Change  Column Row Layer    Maximum-Flux-Residual          L2-NORM 
          0                21           2             4    8     1      -0.2193986739E-03       4    8    1        -0.1222239728E-01      0.1222384387E-01
          0                22           2             4    8     1      -0.1311647631E-03       4    8    1        -0.7306940419E-02      0.7307804007E-02
          0                23           1             4    8     1      -0.7841472020E-04       4    8    1        -0.4368294902E-02      0.4368810799E-02

    ------------------------------------------------
       NWT REQUIRED           23 OUTER ITERATIONS 
       AND A TOTAL OF         45 INNER ITERATIONS.
    ------------------------------------------------

 NO OUTPUT CONTROL FOR STRESS PERIOD    9   TIME STEP   26
 
 SOLVING FOR HEAD 
                                                   Max.-Head-Change                         Max.-Flux-Residual
  Residual-Control   Outer-Iter.   Inner-Iter.     Column Row Layer    Maximum-Head-Change  Column Row Layer    Maximum-Flux-Residual          L2-NORM 
          0                 1           2             5    7     1       0.1467774011E+01       5    6    1         0.7905806830E+02      0.1503723406E+03
          0                 2           2             5    7     1       0.3607404670E+00       5    7    1         0.1919427315E+02      0.3682998280E+02
          0                 3           2             4    7     1       0.1670951282E+00       4    7    1         0.8766828296E+01      0.1964321220E+02
          0                 4           2             4    7     1       0.2901153424E-01       4    7    1         0.1611844633E+01      0.3102519267E+01
          0                 5           2             4    7     1       0.1673005686E-01       4    7    1         0.9195213419E+00      0.1227844273E+01
          0                 6           2             4    7     1       0.9718892072E-02       4    7    1         0.5309590811E+00      0.5865361996E+00
          0                 7           2             4    7     1       0.5669102008E-02       4    7    1         0.3086740742E+00      0.3183145038E+00
          0                 8           2             4    7     1       0.3314478408E-02       4    7    1         0.1801262414E+00      0.1821950460E+00
          0                 9           2             4    7     1       0.1940442613E-02       4    7    1         0.1053370191E+00      0.1061407338E+00
          0                10           2             4    7     1       0.1136962163E-02       4    7    1         0.6167764798E-01      0.6218394509E-01
                                                   Max.-Head-Change                         Max.-Flux-Residual
  Residual-Control   Outer-Iter.   Inner-Iter.     Column Row Layer    Maximum-Head-Change  Column Row Layer    Maximum-Flux-Residual          L2-NORM 
          0                11           1             4    7     1       0.6665440081E-03       4    7    1         0.3614151634E-01      0.3650452052E-01
          0                12           1             4    7     1       0.3909199125E-03       4    7    1         0.2118909063E-01      0.2144976142E-01
          0                13           1             4    7     1       0.2293453945E-03       4    7    1         0.1242770099E-01      0.1261128870E-01
          0                14           1             4    7     1       0.1345911798E-03       4    7    1         0.7291391808E-02      0.7418322901E-02
          0                15           1             4    7     1       0.7900534411E-04       4    7    1         0.4279107276E-02      0.4365554791E-02

    ------------------------------------------------
       NWT REQUIRED           15 OUTER ITERATIONS 
       AND A TOTAL OF         25 INNER ITERATIONS.
    ------------------------------------------------

 NO OUTPUT CONTROL FOR STRESS PERIOD    9   TIME STEP   27
 
 SOLVING FOR HEAD 
                                                   Max.-Head-Change                         Max.-Flux-Residual
  Residual-Control   Outer-Iter.   Inner-Iter.     Column Row Layer    Maximum-Head-Change  Column Row Layer    Maximum-Flux-Residual          L2-NORM 
          0                 1           2             4    6     1       0.1948545473E+01       4    6    1         0.1038859999E+03      0.1910877715E+03
          0                 2           2             4    8     1       0.8102268698E+00       4    8    1         0.4331418075E+02      0.7847132737E+02
          0                 3           2             5    6     1       0.4604232679E+00       5    6    1         0.2485346167E+02      0.4320393272E+02
          0                 4           2             4    7     1      -0.1796840964E+01       4    7    1        -0.9654423607E+02      0.2257171596E+03
          0                 5           2             5    8     1      -0.9948838688E+00       5    8    1        -0.5505907196E+02      0.1084603583E+03
          0                 6           2             5    7     1      -0.5903057305E+00       5    7    1        -0.3260153832E+02      0.5458465214E+02
          0                 7           2             5    7     1      -0.3530647923E+00       5    7    1        -0.1968532861E+02      0.3085654171E+02
          0                 8           2             5    6     1      -0.1994077700E+00       5    6    1        -0.1111736512E+02      0.1774027739E+02
          0                 9           2             5    6     1      -0.1171474976E+00       5    6    1        -0.6642005740E+01      0.8397898921E+01
          0                10           2             5    6     1      -0.6879690029E-01       5    6    1        -0.3894493092E+01      0.4932838750E+01
                                                   Max.-Head-Change                         Max.-Flux-Residual
  Residual-Control   Outer-Iter.   Inner-Iter.     Column Row Layer    Maximum-Head-Change  Column Row Layer    Maximum-Flux-Residual          L2-NORM 
          0                11           2             5    6     1      -0.4039416549E-01       5    6    1        -0.2287233659E+01      0.2915592263E+01
          0                12           2             5    6     1      -0.2371492799E-01       5    6    1        -0.1342898340E+01      0.1723716070E+01
          0                13           2             5    6     1      -0.1392191814E-01       5    6    1        -0.7883779402E+00      0.1019250039E+01
          0                14           2             5    6     1      -0.8172621542E-02       5    6    1        -0.4628093845E+00      0.6027825320E+00
          0                15           2             5    6     1      -0.4797495066E-02       5    6    1        -0.2716790371E+00      0.3565374933E+00
          0                16           2             5    6     1      -0.2816187604E-02       5    6    1        -0.1594783014E+00      0.2109190345E+00
          0                17           2             5    6     1      -0.1653119097E-02       5    6    1        -0.9361411311E-01      0.1247939773E+00
          0                18           2             5    6     1      -0.9703827628E-03       5    6    1        -0.5495114680E-01      0.7384815766E-01
          0                19           2             5    6     1      -0.5696116027E-03       5    6    1        -0.3225586312E-01      0.4370735340E-01
          0                20           2             5    6     1      -0.3343579417E-03       5    6    1        -0.1893378553E-01      0.2587251142E-01
                                                   Max.-Head-Change                         Max.-Flux-Residual
  Residual-Control   Outer-Iter.   Inner-Iter.     Column Row Layer    Maximum-Head-Change  Column Row Layer    Maximum-Flux-Residual          L2-NORM 
          0                21           2             5    6     1      -0.1962644539E-03       5    6    1        -0.1111381934E-01      0.1531765203E-01
          0                22           2             5    6     1      -0.1152043606E-03       5    6    1        -0.6523586422E-02      0.9070172660E-02
          0                23           1             5    6     1      -0.6762285361E-04       5    6    1        -0.3829188770E-02      0.5371663383E-02

    ------------------------------------------------
       NWT REQUIRED           23 OUTER ITERATIONS 
       AND A TOTAL OF         45 INNER ITERATIONS.
    ------------------------------------------------

 NO OUTPUT CONTROL FOR STRESS PERIOD    9   TIME STEP   28
 
 SOLVING FOR HEAD 
                                                   Max.-Head-Change                         Max.-Flux-Residual
  Residual-Control   Outer-Iter.   Inner-Iter.     Column Row Layer    Maximum-Head-Change  Column Row Layer    Maximum-Flux-Residual          L2-NORM 
          0                 1           2             5    7     1       0.1456075517E+01       5    6    1         0.7778076996E+02      0.1468568755E+03
          0                 2           2             5    7     1       0.3592853700E+00       5    7    1         0.1902840310E+02      0.3872266080E+02
          0                 3           2             4    7     1       0.2330840160E+00       4    7    1         0.1231128763E+02      0.2260346478E+02
          0                 4           2             4    7     1       0.6821195502E-01       4    7    1         0.3713037399E+01      0.5273203088E+01
          0                 5           2             4    7     1       0.4004766230E-01       4    7    1         0.2168265908E+01      0.2747523039E+01
          0                 6           2             4    7     1       0.2359596629E-01       4    7    1         0.1273823503E+01      0.1560941169E+01
          0                 7           2             4    7     1       0.1392953756E-01       4    7    1         0.7507963445E+00      0.9139777816E+00
          0                 8           2             4    7     1       0.8231849126E-02       4    7    1         0.4433068988E+00      0.5400792820E+00
          0                 9           2             4    7     1       0.4867644124E-02       4    7    1         0.2620043151E+00      0.3200066127E+00
          0                10           2             4    7     1       0.2879356684E-02       4    7    1         0.1549355641E+00      0.1897698726E+00
                                                   Max.-Head-Change                         Max.-Flux-Residual
  Residual-Control   Outer-Iter.   Inner-Iter.     Column Row Layer    Maximum-Head-Change  Column Row Layer    Maximum-Flux-Residual          L2-NORM 
          0                11           2             4    7     1       0.1703623101E-02       4    7    1         0.9165169030E-01      0.1125709865E+00
          0                12           2             4    7     1       0.1008147585E-02       4    7    1         0.5422855077E-01      0.6678533392E-01
          0                13           2             4    7     1       0.5966652610E-03       4    7    1         0.3209121678E-01      0.3962456117E-01
          0                14           2             4    7     1       0.3531700364E-03       4    7    1         0.1899325118E-01      0.2351073031E-01
          0                15           2             4    7     1       0.2090632423E-03       4    7    1         0.1124237904E-01      0.1395023161E-01
          0                16           1             4    7     1       0.1237680863E-03       4    7    1         0.6655143702E-02      0.8277667023E-02
          0                17           1             4    7     1       0.7327814525E-04       4    7    1         0.3939975470E-02      0.4911840834E-02

    ------------------------------------------------
       NWT REQUIRED           17 OUTER ITERATIONS 
       AND A TOTAL OF         32 INNER ITERATIONS.
    ------------------------------------------------

 NO OUTPUT CONTROL FOR STRESS PERIOD    9   TIME STEP   29
 
 SOLVING FOR HEAD 
                                                   Max.-Head-Change                         Max.-Flux-Residual
  Residual-Control   Outer-Iter.   Inner-Iter.     Column Row Layer    Maximum-Head-Change  Column Row Layer    Maximum-Flux-Residual          L2-NORM 
          0                 1           2             4    8     1       0.1672231282E+01       4    8    1         0.8918218281E+02      0.1807332561E+03
          0                 2           2             5    6     1       0.7534502233E+00       5    6    1         0.4060851120E+02      0.7689606405E+02
          0                 3           2             5    7     1       0.4752919639E+00       5    7    1         0.2547487639E+02      0.4264679901E+02
          0                 4           2             4    7     1      -0.1805714224E+01       4    6    1        -0.9701488018E+02      0.2288712668E+03
          0                 5           2             5    8     1      -0.9856581412E+00       5    8    1        -0.5465127835E+02      0.1029585904E+03
          0                 6           2             5    7     1      -0.5737331646E+00       5    7    1        -0.3158275150E+02      0.5407817511E+02
          0                 7           2             5    7     1      -0.3427226248E+00       5    7    1        -0.1913988487E+02      0.2843795658E+02
          0                 8           2             5    7     1      -0.2044687233E+00       5    7    1        -0.1141428312E+02      0.1682972898E+02
          0                 9           2             5    7     1      -0.1219104392E+00       5    7    1        -0.6809329306E+01      0.1003658820E+02
          0                10           2             5    7     1      -0.7266509530E-01       5    7    1        -0.4059601015E+01      0.5992144467E+01
                                                   Max.-Head-Change                         Max.-Flux-Residual
  Residual-Control   Outer-Iter.   Inner-Iter.     Column Row Layer    Maximum-Head-Change  Column Row Layer    Maximum-Flux-Residual          L2-NORM 
          0                11           2             5    7     1      -0.4330668329E-01       5    7    1        -0.2419626679E+01      0.3578371092E+01
          0                12           2             5    7     1      -0.2580867609E-01       5    7    1        -0.1441999078E+01      0.2136986706E+01
          0                13           2             5    7     1      -0.1388236639E-01       5    7    1        -0.7744276252E+00      0.1220621889E+01
          0                14           2             5    6     1      -0.8059246712E-02       5    6    1        -0.4572360190E+00      0.5663085600E+00
          0                15           2             5    6     1      -0.4730694879E-02       5    6    1        -0.2678781793E+00      0.3325443024E+00
          0                16           2             5    6     1      -0.2776820926E-02       5    6    1        -0.1572572133E+00      0.1964784324E+00
          0                17           2             5    6     1      -0.1629916117E-02       5    6    1        -0.9230494921E-01      0.1160977021E+00
          0                18           2             5    6     1      -0.9567055031E-03       5    6    1        -0.5417952312E-01      0.6861147822E-01
          0                19           2             5    6     1      -0.5615489701E-03       5    6    1        -0.3180102441E-01      0.4055405923E-01
          0                20           2             5    6     1      -0.3296049733E-03       5    6    1        -0.1866566486E-01      0.2397382762E-01
                                                   Max.-Head-Change                         Max.-Flux-Residual
  Residual-Control   Outer-Iter.   Inner-Iter.     Column Row Layer    Maximum-Head-Change  Column Row Layer    Maximum-Flux-Residual          L2-NORM 
          0                21           2             5    6     1      -0.1934625351E-03       5    6    1        -0.1095576281E-01      0.1417447087E-01
          0                22           2             5    6     1      -0.1135526122E-03       5    6    1        -0.6430412056E-02      0.8381920063E-02
          0                23           1             5    6     1      -0.6664916898E-04       5    6    1        -0.3774262796E-02      0.4957331579E-02

    ------------------------------------------------
       NWT REQUIRED           23 OUTER ITERATIONS 
       AND A TOTAL OF         45 INNER ITERATIONS.
    ------------------------------------------------

 NO OUTPUT CONTROL FOR STRESS PERIOD    9   TIME STEP   30



 STREAM LISTING     PERIOD      9   STEP       30

 LAYER ROW COL. STREAM  RCH.  FLOW INTO     FLOW TO   FLOW OUT OF   OVRLND.     DIRECT     STREAM       STREAM     STREAM     STREAM   STREAMBED  STREAMBED
                SEG.NO.  NO.  STRM. RCH.    AQUIFER    STRM. RCH.    RUNOFF     PRECIP       ET          HEAD       DEPTH      WIDTH   CONDCTNC.   GRADIENT

   1    1    1     1     1    2.2875E+01  2.3514E-01   2.2640E+01  0.000E+00  0.000E+00  0.000E+00  1.09419E+03  1.146E+00  1.260E+01  5.672E-02  1.382E+00
   1    2    2     1     2    2.2640E+01  3.6351E-01   2.2276E+01  0.000E+00  0.000E+00  0.000E+00  1.08920E+03  1.141E+00  1.254E+01  8.778E-02  1.380E+00
   1    3    3     1     3    2.2276E+01  3.0939E-01   2.1967E+01  0.000E+00  0.000E+00  0.000E+00  1.08355E+03  1.136E+00  1.247E+01  7.481E-02  1.379E+00
   1    3    4     1     4    2.1967E+01  2.8439E-01   2.1682E+01  0.000E+00  0.000E+00  0.000E+00  1.07854E+03  1.131E+00  1.240E+01  6.885E-02  1.377E+00
   1    4    5     2     1    1.9682E+01  3.1521E-01   1.9367E+01  0.000E+00  0.000E+00  0.000E+00  1.07298E+03  1.041E+00  1.200E+01  7.800E-02  1.347E+00
   1    5    6     2     2    1.9367E+01  2.4193E-01   1.9125E+01  0.000E+00  0.000E+00  0.000E+00  1.06754E+03  1.032E+00  1.200E+01  6.000E-02  1.344E+00
   1    6    6     2     3    1.9125E+01  2.4146E-01   1.8884E+01  0.000E+00  0.000E+00  0.000E+00  1.06282E+03  1.024E+00  1.200E+01  6.000E-02  1.341E+00
   1    7    6     2     4    1.8884E+01  2.4099E-01   1.8643E+01  0.000E+00  0.000E+00  0.000E+00  1.05809E+03  1.017E+00  1.200E+01  6.000E-02  1.339E+00
   1    8    6     2     5    1.8643E+01  2.4052E-01   1.8402E+01  0.000E+00  0.000E+00  0.000E+00  1.05337E+03  1.009E+00  1.200E+01  6.000E-02  1.336E+00
   1    3    5     3     1    2.0000E+00  2.8252E-01   1.7175E+00  0.000E+00  0.000E+00  0.000E+00  1.07555E+03  1.909E+00  9.636E+00  7.227E-02  1.955E+00
   1    3    6     3     2    1.7175E+00  2.4905E-01   1.4684E+00  0.000E+00  0.000E+00  0.000E+00  1.07264E+03  1.727E+00  8.909E+00  6.682E-02  1.864E+00
   1    3    7     3     3    1.4684E+00  1.9718E-01   1.2712E+00  0.000E+00  0.000E+00  0.000E+00  1.06987E+03  1.555E+00  8.218E+00  5.547E-02  1.777E+00
   1    4    8     3     4    1.2712E+00  2.2567E-01   1.0456E+00  0.000E+00  0.000E+00  0.000E+00  1.06682E+03  1.364E+00  7.455E+00  6.709E-02  1.682E+00
   1    5    8     3     5    1.0456E+00  1.5790E-01   8.8768E-01  0.000E+00  0.000E+00  0.000E+00  1.06362E+03  1.164E+00  6.655E+00  4.991E-02  1.582E+00
   1    6    8     3     6    8.8768E-01  5.5980E-02   8.3170E-01  0.000E+00  0.000E+00  0.000E+00  1.06158E+03  1.036E+00  6.145E+00  1.844E-02  1.518E+00
   1    5   10     4     1    1.0000E+01  9.0919E-02   9.9091E+00  0.000E+00  0.000E+00  0.000E+00  1.07836E+03  6.368E-01  1.000E+01  2.500E-02  1.212E+00
   1    5    9     4     2    9.9091E+00  1.8158E-01   9.7275E+00  0.000E+00  0.000E+00  0.000E+00  1.07154E+03  6.315E-01  1.000E+01  5.000E-02  1.211E+00
   1    6    8     4     3    9.7275E+00  1.2689E-01   9.6006E+00  0.000E+00  0.000E+00  0.000E+00  1.06381E+03  6.256E-01  1.000E+01  3.500E-02  1.209E+00
   1    6    8     5     1    1.0432E+01  2.2686E-01   1.0205E+01  0.000E+00  0.000E+00  0.000E+00  1.05868E+03  6.790E-01  1.542E+01  6.166E-02  1.226E+00
   1    7    7     5     2    1.0205E+01  2.7894E-01   9.9265E+00  0.000E+00  0.000E+00  0.000E+00  1.05417E+03  6.732E-01  1.519E+01  7.594E-02  1.224E+00
   1    8    7     5     3    9.9265E+00  1.9221E-01   9.7343E+00  0.000E+00  0.000E+00  0.000E+00  1.04992E+03  6.676E-01  1.497E+01  5.241E-02  1.223E+00
   1    8    6     5     4    9.7343E+00  1.3577E-01   9.5985E+00  0.000E+00  0.000E+00  0.000E+00  1.04691E+03  6.637E-01  1.482E+01  3.706E-02  1.221E+00
   1    9    6     6     1    9.5985E+00  2.2097E-01   9.3776E+00  0.000E+00  0.000E+00  0.000E+00  1.04341E+03  6.828E-01  1.200E+01  6.000E-02  1.228E+00
   1   10    7     6     2    9.3776E+00  2.2039E-01   9.1572E+00  0.000E+00  0.000E+00  0.000E+00  1.03885E+03  6.732E-01  1.200E+01  6.000E-02  1.224E+00
   1   11    7     6     3    9.1572E+00  2.1981E-01   8.9374E+00  0.000E+00  0.000E+00  0.000E+00  1.03430E+03  6.636E-01  1.200E+01  6.000E-02  1.221E+00
   1   12    7     6     4    8.9374E+00  2.1923E-01   8.7181E+00  0.000E+00  0.000E+00  0.000E+00  1.02974E+03  6.539E-01  1.200E+01  6.000E-02  1.218E+00
   1   13    7     6     5    8.7181E+00 -6.0468E-02   8.7786E+00  0.000E+00  0.000E+00  0.000E+00  1.02656E+03  6.503E-01  1.200E+01  2.400E-01 -8.398E-02
   1   14    9     7     1    1.5000E+02  1.3687E+00   1.4863E+02  0.000E+00  0.000E+00  0.000E+00  1.03987E+03  2.288E+00  5.529E+01  5.593E-01  8.157E-01
   1   13    8     7     2    1.4863E+02  1.9215E+00   1.4671E+02  0.000E+00  0.000E+00  0.000E+00  1.03478E+03  2.279E+00  5.525E+01  6.148E-01  1.042E+00
   1   13    7     7     3    1.4671E+02  1.6068E+00   1.4510E+02  0.000E+00  0.000E+00  0.000E+00  1.02969E+03  2.269E+00  5.521E+01  5.584E-01  9.591E-01
   1   13    6     8     1    1.5388E+02  9.5958E-01   1.5292E+02  0.000E+00  0.000E+00  0.000E+00  1.02472E+03  2.841E+00  4.119E+01  4.197E-01  7.621E-01
   1   13    5     8     2    1.5292E+02  2.2607E-01   1.5270E+02  0.000E+00  0.000E+00  0.000E+00  1.01846E+03  2.837E+00  4.113E+01  4.191E-01  1.798E-01
   1   13    4     8     3    1.5270E+02 -2.2356E+00   1.5493E+02  0.000E+00  0.000E+00  0.000E+00  1.01222E+03  2.843E+00  4.123E+01  4.202E+00 -1.774E-01
   1   13    3     8     4    1.5493E+02 -3.5505E+00   1.5848E+02  0.000E+00  0.000E+00  0.000E+00  1.00599E+03  2.863E+00  4.152E+01  4.231E+00 -2.797E-01
   1   13    2     8     5    1.5848E+02 -2.5562E+00   1.6104E+02  0.000E+00  0.000E+00  0.000E+00  9.99759E+02  2.884E+00  4.182E+01  4.262E+00 -1.999E-01
   1   13    1     8     6    1.6104E+02 -1.9735E+00   1.6301E+02  0.000E+00  0.000E+00  0.000E+00  9.94774E+02  2.899E+00  4.204E+01  2.571E+00 -2.559E-01
   1    8    6     9     1    1.8402E+01  0.0000E+00   1.8402E+01  0.000E+00  0.000E+00  0.000E+00  1.08202E+03  3.267E+00  4.000E+00  0.000E+00  2.089E+00
   1    8    5     9     2    1.8402E+01  0.0000E+00   1.8402E+01  0.000E+00  0.000E+00  0.000E+00  1.08152E+03  3.267E+00  4.000E+00  0.000E+00  2.089E+00





UNSATURATED ZONE PACKAGE VOLUMETRIC BUDGET FOR  TIME STEP    30 STRESS PERIOD    9
  ------------------------------------------------------------------------------



     CUMULATIVE VOLUMES      L**3       RATES FOR THIS TIME STEP      L**3/T
     ------------------                 ------------------------

           IN:                                      IN:
           ---                                      ---
        INFILTRATION =  1899240598.5275          INFILTRATION =         619.2502

          OUT:                                     OUT:
          ----                                     ----
              UZF ET =   394368521.6677                UZF ET =          49.5675
        UZF RECHARGE =   501980856.1328          UZF RECHARGE =         179.1104

            IN - OUT =  1002891220.7270              IN - OUT =         390.5723

          STORAGE:                                 STORAGE:
          --------                                 --------
      STORAGE CHANGE =  1002891356.3727        STORAGE CHANGE =         390.5723

 PERCENT DISCREPANCY IS DIFFERENCE BETWEEN IN-OUT MINUS CHANGE IN STORAGE
 DIVIDED BY THE AVERAGE OF IN AND OUT TIMES 100

 PERCENT DISCREPANCY =          -0.00     PERCENT DISCREPANCY =           0.00






1
  VOLUMETRIC BUDGET FOR AGRICULTURAL FIELDS AT  END OF TIME STEP   30, STRESS PERIOD   9
  ------------------------------------------------------------------------------

     CUMULATIVE VOLUMES      L**3       RATES FOR THIS TIME STEP      L**3/T
     ------------------                 ------------------------

           IN:                                      IN:
           ---                                      ---
               AG WELLS  =  1630378752.0000                 AG WELLS  =         600.0000
      DIVERSION SEGMENTS =   250953552.0000        DIVERSION SEGMENTS =          18.4023
           GW IRRIGATION =           0.0000             GW IRRIGATION =           0.0000
           SW IRRIGATION =           0.0000             SW IRRIGATION =           0.0000
        SYSTEM LOSSES GW =           0.0000          SYSTEM LOSSES GW =           0.0000
        SYSTEM LOSSES SW =           0.0000          SYSTEM LOSSES SW =           0.0000

                TOTAL IN =  1881332352.0000                  TOTAL IN =         618.4023

          OUT:                                     OUT:
          ----                                     ----
               AG WELLS  =           0.0000                 AG WELLS  =           0.0000
      DIVERSION SEGMENTS =           0.0000        DIVERSION SEGMENTS =           0.0000
           GW IRRIGATION =  1630378752.0000             GW IRRIGATION =         600.0000
           SW IRRIGATION =   250958224.0000             SW IRRIGATION =          18.4027
        SYSTEM LOSSES GW =           0.0000          SYSTEM LOSSES GW =           0.0000
        SYSTEM LOSSES SW =           0.0000          SYSTEM LOSSES SW =           0.0000

               TOTAL OUT =  1881336960.0000                 TOTAL OUT =         618.4026

                IN - OUT =       -4608.0000                  IN - OUT =      -3.6621E-04

     PERCENT DISCREPANCY =          -0.00         PERCENT DISCREPANCY =          -0.00



1
  VOLUMETRIC BUDGET FOR ENTIRE MODEL AT END OF TIME STEP   30, STRESS PERIOD   9
  ------------------------------------------------------------------------------

     CUMULATIVE VOLUMES      L**3       RATES FOR THIS TIME STEP      L**3/T
     ------------------                 ------------------------

           IN:                                      IN:
           ---                                      ---
             STORAGE     =  1702348032.0000               STORAGE     =         419.8040
       CONSTANT HEAD     =           0.0000         CONSTANT HEAD     =           0.0000
     HEAD DEP BOUNDS     =     6082223.5000       HEAD DEP BOUNDS     =           0.2880
      STREAM LEAKAGE     =   249847168.0000        STREAM LEAKAGE     =          11.8371
        UZF RECHARGE     =   501980800.0000          UZF RECHARGE     =         179.1104
               GW ET     =           0.0000                 GW ET     =           0.0000
     SURFACE LEAKAGE     =           0.0000       SURFACE LEAKAGE     =           0.0000
           AG WELLS      =           0.0000             AG WELLS      =           0.0000

                TOTAL IN =  2460258304.0000                  TOTAL IN =         611.0394

          OUT:                                     OUT:
          ----                                     ----
             STORAGE     =   604674176.0000               STORAGE     =           0.3808
       CONSTANT HEAD     =           0.0000         CONSTANT HEAD     =           0.0000
     HEAD DEP BOUNDS     =     6078766.0000       HEAD DEP BOUNDS     =           0.2866
      STREAM LEAKAGE     =   219135968.0000        STREAM LEAKAGE     =          10.3763
        UZF RECHARGE     =           0.0000          UZF RECHARGE     =           0.0000
               GW ET     =           0.0000                 GW ET     =           0.0000
     SURFACE LEAKAGE     =           0.0000       SURFACE LEAKAGE     =           0.0000
           AG WELLS      =  1630378752.0000             AG WELLS      =         600.0000

               TOTAL OUT =  2460267520.0000                 TOTAL OUT =         611.0436

                IN - OUT =       -9216.0000                  IN - OUT =      -4.2114E-03

     PERCENT DISCREPANCY =          -0.00         PERCENT DISCREPANCY =          -0.00






         TIME SUMMARY AT END OF TIME STEP   30 IN STRESS PERIOD    9
                    SECONDS     MINUTES      HOURS       DAYS        YEARS
                    -----------------------------------------------------------
   TIME STEP LENGTH  87667.      1461.1      24.352      1.0147     2.77799E-03
 STRESS PERIOD TIME 2.63000E+06  43833.      730.56      30.440     8.33397E-02
         TOTAL TIME 2.11264E+07 3.52107E+05  5868.4      244.52     0.66945    
1
1
                            STRESS PERIOD NO.   10, LENGTH =   2630000.    
                            -----------------------------------------------

                              NUMBER OF TIME STEPS =    30

                               MULTIPLIER FOR DELT =     1.000

                            INITIAL TIME STEP SIZE =   87666.66    

 REUSING NON-PARAMETER GHB CELLS FROM LAST STRESS PERIOD

      2 GHB CELLS

 REUSING STREAM SEGMENT DATA FROM LAST STRESS PERIOD



            AREAL INFILTRATION RATE
 READING ON UNIT   19 WITH FORMAT: (FREE)              

            1           2           3           4           5           6           7           8           9          10
 ........................................................................................................................
   1   1.0000E-10  2.0000E-10   0.000       0.000       0.000       0.000       0.000       0.000       0.000       0.000    
   2   2.0000E-10  1.0000E-10  2.0000E-10   0.000       0.000      8.0000E-10  8.0000E-10  5.0000E-10   0.000       0.000    
   3    0.000      5.0000E-10  1.0000E-10  1.0000E-10  8.0000E-10  8.0000E-10  5.0000E-10  5.0000E-10   0.000       0.000    
   4   8.0000E-10  5.0000E-10  1.0000E-10  1.0000E-10  1.0000E-10  1.0000E-10  1.0000E-10  1.0000E-10  2.0000E-10   0.000    
   5   8.0000E-10  5.0000E-10  1.0000E-10  1.0000E-10  1.0000E-10  1.0000E-10  1.0000E-10  1.0000E-10  1.0000E-10  1.0000E-10
   6   8.0000E-10  5.0000E-10  5.0000E-10  2.0000E-10  2.0000E-10  1.0000E-10  1.0000E-10  1.0000E-10  1.0000E-10  5.0000E-10
   7   8.0000E-10  5.0000E-10  5.0000E-10  2.0000E-10  2.0000E-10  1.0000E-10  1.0000E-10  2.0000E-10  2.0000E-10   0.000    
   8    0.000      5.0000E-10  5.0000E-10  2.0000E-10  2.0000E-10  1.0000E-10  1.0000E-10  2.0000E-10  5.0000E-10   0.000    
   9    0.000      5.0000E-10  5.0000E-10  2.0000E-10  2.0000E-10  1.0000E-10  1.0000E-10  2.0000E-10  5.0000E-10   0.000    
  10    0.000      5.0000E-10  5.0000E-10  2.0000E-10  2.0000E-10  1.0000E-10  1.0000E-10  2.0000E-10  5.0000E-10  8.0000E-10
  11    0.000      1.0000E-10  1.0000E-10  1.0000E-10  1.0000E-10  1.0000E-10  1.0000E-10  2.0000E-10  5.0000E-10   0.000    
  12   1.0000E-10  1.0000E-10  1.0000E-10  1.0000E-10  1.0000E-10  1.0000E-10  1.0000E-10  1.0000E-10  2.0000E-10   0.000    
  13   1.0000E-10  1.0000E-10  2.0000E-10  2.0000E-10  2.0000E-10  2.0000E-10  2.0000E-10  1.0000E-10  1.0000E-10   0.000    
  14    0.000      2.0000E-10  5.0000E-10  5.0000E-10  5.0000E-10  5.0000E-10  5.0000E-10  2.0000E-10  1.0000E-10   0.000    
  15    0.000       0.000      8.0000E-10  8.0000E-10  8.0000E-10  8.0000E-10   0.000       0.000       0.000       0.000    

                  ET RATE =  7.500000E-08

 USING ET EXTINCTION DEPTH FROM PREVIOUS STRESS PERIOD. CURRENT PERIOD IS:      10

 USING EXTINCTION WATER CONTENT FROM PREVIOUS STRESS PERIOD. CURRENT PERIOD IS:      10

 USING AIR ENTRY PRESSURE FROM PREVIOUS STRESS PERIOD. CURRENT PERIOD IS:      10

 USING ROOT PRESSURE HEAD FROM PREVIOUS STRESS PERIOD. CURRENT PERIOD IS:      10

 USING ROOT ACTIVITY FROM PREVIOUS STRESS PERIOD. CURRENT PERIOD IS:      10

 PROCESSING AG STRESS PERIOD DATA

 READING AG STRESS PERIOD DATA

 READING IRRIGATION SEGMENT

 READING IRRIGATION WELL

 READING SUPPLEMENTAL WELL

 END PROCESSING AG STRESS PERIOD DATA OPTIONS
 
 SOLVING FOR HEAD 
                                                   Max.-Head-Change                         Max.-Flux-Residual
  Residual-Control   Outer-Iter.   Inner-Iter.     Column Row Layer    Maximum-Head-Change  Column Row Layer    Maximum-Flux-Residual          L2-NORM 
          0                 1           2             5    7     1       0.1446985559E+01       5    7    1         0.7717944376E+02      0.1404669345E+03
          0                 2           2             4    7     1       0.4636133591E+00       4    7    1         0.2441644251E+02      0.4951626728E+02
          0                 3           2             4    7     1       0.2783667604E+00       4    7    1         0.1481078790E+02      0.2231033859E+02
          0                 4           2             4    7     1       0.1660573658E+00       4    7    1         0.8877878382E+01      0.1205075800E+02
          0                 5           2             4    7     1       0.9875022482E-01       4    7    1         0.5291791726E+01      0.6980742705E+01
          0                 6           2             4    7     1       0.5863541186E-01       4    7    1         0.3145674763E+01      0.4120585704E+01
          0                 7           2             4    7     1       0.3479093201E-01       4    7    1         0.1867471473E+01      0.2442998994E+01
          0                 8           2             4    7     1       0.2063591961E-01       4    7    1         0.1107951929E+01      0.1449741165E+01
          0                 9           2             4    7     1       0.1223813748E-01       4    7    1         0.6571438259E+00      0.8604532699E+00
          0                10           2             4    7     1       0.7257394117E-02       4    7    1         0.3897121278E+00      0.5107027093E+00
                                                   Max.-Head-Change                         Max.-Flux-Residual
  Residual-Control   Outer-Iter.   Inner-Iter.     Column Row Layer    Maximum-Head-Change  Column Row Layer    Maximum-Flux-Residual          L2-NORM 
          0                11           2             4    7     1       0.4303675537E-02       4    7    1         0.2311033795E+00      0.3031127916E+00
          0                12           2             4    7     1       0.2552120629E-02       4    7    1         0.1370454233E+00      0.1799023350E+00
          0                13           2             4    7     1       0.1513457377E-02       4    7    1         0.8126935426E-01      0.1067745260E+00
          0                14           2             4    7     1       0.8975290778E-03       4    7    1         0.4819444125E-01      0.6337208976E-01
          0                15           2             4    7     1       0.5322761619E-03       4    7    1         0.2858095063E-01      0.3761218555E-01
          0                16           2             4    7     1       0.3156718814E-03       4    7    1         0.1694988051E-01      0.2232336100E-01
          0                17           2             4    7     1       0.1872169336E-03       4    7    1         0.1005233672E-01      0.1324924702E-01
          0                18           1             4    7     1       0.1110361829E-03       4    7    1         0.5961804757E-02      0.7863636992E-02
          0                19           1             4    7     1       0.6585577276E-04       4    7    1         0.3535888900E-02      0.4667199471E-02

    ------------------------------------------------
       NWT REQUIRED           19 OUTER ITERATIONS 
       AND A TOTAL OF         36 INNER ITERATIONS.
    ------------------------------------------------

 NO OUTPUT CONTROL FOR STRESS PERIOD   10   TIME STEP    1
 
 SOLVING FOR HEAD 
                                                   Max.-Head-Change                         Max.-Flux-Residual
  Residual-Control   Outer-Iter.   Inner-Iter.     Column Row Layer    Maximum-Head-Change  Column Row Layer    Maximum-Flux-Residual          L2-NORM 
          0                 1           2             4    8     1       0.1810206928E+01       4    8    1         0.9683805984E+02      0.1761455035E+03
          0                 2           2             5    7     1       0.8550292135E+00       5    6    1         0.4585077165E+02      0.8317861076E+02
          0                 3           2             5    7     1       0.3450658246E+00       5    7    1         0.1849428600E+02      0.3125014215E+02
          0                 4           2             5    8     1       0.1837808659E+00       5    8    1         0.1000973014E+02      0.1264793426E+02
          0                 5           2             5    8     1       0.1065373536E+00       5    8    1         0.5837978619E+01      0.6277942634E+01
          0                 6           2             5    8     1       0.6151119905E-01       5    8    1         0.3380739599E+01      0.3454138043E+01
          0                 7           2             5    8     1       0.3544378593E-01       5    8    1         0.1950928788E+01      0.1964213100E+01
          0                 8           2             5    8     1       0.2040302429E-01       5    8    1         0.1123872238E+01      0.1126689737E+01
          0                 9           2             5    8     1       0.1173906230E-01       5    8    1         0.6468691333E+00      0.6476219817E+00
          0                10           2             5    8     1       0.6752495844E-02       5    8    1         0.3721584301E+00      0.3724184114E+00
                                                   Max.-Head-Change                         Max.-Flux-Residual
  Residual-Control   Outer-Iter.   Inner-Iter.     Column Row Layer    Maximum-Head-Change  Column Row Layer    Maximum-Flux-Residual          L2-NORM 
          0                11           2             5    8     1       0.3883659198E-02       5    8    1         0.2140647063E+00      0.2141757077E+00
          0                12           1             5    8     1       0.2233524491E-02       5    8    1         0.1231161415E+00      0.1231705423E+00
          0                13           1             5    8     1       0.1284477979E-02       5    8    1         0.7080455019E-01      0.7083335796E-01
          0                14           1             5    8     1       0.7386789653E-03       5    8    1         0.4071883950E-01      0.4073472660E-01
          0                15           1             5    8     1       0.4247968993E-03       5    8    1         0.2341658718E-01      0.2342553216E-01
          0                16           1             5    8     1       0.2442897238E-03       5    8    1         0.1346631520E-01      0.1347140460E-01
          0                17           1             5    8     1       0.1404844250E-03       5    8    1         0.7744126199E-02      0.7747037255E-02
          0                18           1             5    8     1       0.8078871751E-04       5    8    1         0.4453436818E-02      0.4455106354E-02

    ------------------------------------------------
       NWT REQUIRED           18 OUTER ITERATIONS 
       AND A TOTAL OF         29 INNER ITERATIONS.
    ------------------------------------------------

 NO OUTPUT CONTROL FOR STRESS PERIOD   10   TIME STEP    2
 
 SOLVING FOR HEAD 
                                                   Max.-Head-Change                         Max.-Flux-Residual
  Residual-Control   Outer-Iter.   Inner-Iter.     Column Row Layer    Maximum-Head-Change  Column Row Layer    Maximum-Flux-Residual          L2-NORM 
          0                 1           2             4    7     1       0.1805352532E+01       4    7    1         0.9629462509E+02      0.1381936776E+03
          0                 2           2             4    6     1       0.8444696634E+00       4    6    1         0.4526370265E+02      0.6743703843E+02
          0                 3           2             4    8     1       0.2522055198E+00       4    8    1         0.1349314098E+02      0.2460633520E+02
          0                 4           2             4    8     1       0.1492393725E+00       4    8    1         0.8036085221E+01      0.1134217321E+02
          0                 5           2             4    8     1       0.8793814700E-01       4    8    1         0.4750072374E+01      0.6142128214E+01
          0                 6           2             4    8     1       0.5171013088E-01       4    8    1         0.2797461956E+01      0.3529542073E+01
          0                 7           2             4    8     1       0.3037629008E-01       4    8    1         0.1644561872E+01      0.2060790201E+01
          0                 8           2             4    8     1       0.1783519538E-01       4    8    1         0.9659491376E+00      0.1207738098E+01
          0                 9           2             4    8     1       0.1046922887E-01       4    8    1         0.5671140021E+00      0.7083567515E+00
          0                10           2             4    8     1       0.6144678059E-02       4    8    1         0.3328847603E+00      0.4155140609E+00
                                                   Max.-Head-Change                         Max.-Flux-Residual
  Residual-Control   Outer-Iter.   Inner-Iter.     Column Row Layer    Maximum-Head-Change  Column Row Layer    Maximum-Flux-Residual          L2-NORM 
          0                11           2             4    8     1       0.3606265910E-02       4    8    1         0.1953762758E+00      0.2437355292E+00
          0                12           2             4    8     1       0.2116428560E-02       4    8    1         0.1146640381E+00      0.1429701324E+00
          0                13           2             4    8     1       0.1242061722E-02       4    8    1         0.6729325292E-01      0.8386240321E-01
          0                14           2             4    8     1       0.7289195712E-03       4    8    1         0.3949210748E-01      0.4919116331E-01
          0                15           2             4    8     1       0.4277740878E-03       4    8    1         0.2317642043E-01      0.2885400579E-01
          0                16           2             4    8     1       0.2510432393E-03       4    8    1         0.1360131917E-01      0.1692486179E-01
          0                17           2             4    8     1       0.1473269344E-03       4    8    1         0.7982060040E-02      0.9927605766E-02
          0                18           1             4    8     1       0.8646009059E-04       4    8    1         0.4684341619E-02      0.5823237022E-02

    ------------------------------------------------
       NWT REQUIRED           18 OUTER ITERATIONS 
       AND A TOTAL OF         35 INNER ITERATIONS.
    ------------------------------------------------

 NO OUTPUT CONTROL FOR STRESS PERIOD   10   TIME STEP    3
 
 SOLVING FOR HEAD 
                                                   Max.-Head-Change                         Max.-Flux-Residual
  Residual-Control   Outer-Iter.   Inner-Iter.     Column Row Layer    Maximum-Head-Change  Column Row Layer    Maximum-Flux-Residual          L2-NORM 
          0                 1           2             5    8     1       0.1645385115E+01       5    8    1         0.8888765695E+02      0.1541312160E+03
          0                 2           2             5    8     1       0.6206053813E+00       5    8    1         0.3367679294E+02      0.5588268752E+02
          0                 3           2             4    7     1       0.2733887558E+00       4    7    1         0.1457215597E+02      0.2227932869E+02
          0                 4           2             4    7     1       0.1626573689E+00       4    7    1         0.8716475300E+01      0.1117465076E+02
          0                 5           2             4    7     1       0.9643970582E-01       4    7    1         0.5181400824E+01      0.6312267328E+01
          0                 6           2             4    7     1       0.5708407579E-01       4    7    1         0.3070729312E+01      0.3699069933E+01
          0                 7           2             4    7     1       0.3376287645E-01       4    7    1         0.1817234585E+01      0.2187568825E+01
          0                 8           2             4    7     1       0.1996279933E-01       4    7    1         0.1074717720E+01      0.1296384466E+01
          0                 9           2             4    7     1       0.1180200919E-01       4    7    1         0.6354179068E+00      0.7686006820E+00
          0                10           2             4    7     1       0.6977335857E-02       4    7    1         0.3756547598E+00      0.4557330401E+00
                                                   Max.-Head-Change                         Max.-Flux-Residual
  Residual-Control   Outer-Iter.   Inner-Iter.     Column Row Layer    Maximum-Head-Change  Column Row Layer    Maximum-Flux-Residual          L2-NORM 
          0                11           2             4    7     1       0.4125201081E-02       4    7    1         0.2220871089E+00      0.2702308652E+00
          0                12           2             4    7     1       0.2439119782E-02       4    7    1         0.1313053548E+00      0.1602400250E+00
          0                13           2             4    7     1       0.1442309324E-02       4    7    1         0.7763818145E-01      0.9502095139E-01
          0                14           2             4    7     1       0.8529484755E-03       4    7    1         0.4590987623E-01      0.5634827180E-01
          0                15           2             4    7     1       0.5044599189E-03       4    7    1         0.2715039801E-01      0.3341601671E-01
          0                16           2             4    7     1       0.2983799820E-03       4    7    1         0.1605779045E-01      0.1981715233E-01
          0                17           2             4    7     1       0.1765026288E-03       4    7    1         0.9498050174E-02      0.1175275716E-01
          0                18           1             4    7     1       0.1044167844E-03       4    7    1         0.5618514471E-02      0.6970270104E-02
          0                19           1             4    7     1       0.6177691147E-04       4    7    1         0.3323885585E-02      0.4133996924E-02

    ------------------------------------------------
       NWT REQUIRED           19 OUTER ITERATIONS 
       AND A TOTAL OF         36 INNER ITERATIONS.
    ------------------------------------------------

 NO OUTPUT CONTROL FOR STRESS PERIOD   10   TIME STEP    4
 
 SOLVING FOR HEAD 
                                                   Max.-Head-Change                         Max.-Flux-Residual
  Residual-Control   Outer-Iter.   Inner-Iter.     Column Row Layer    Maximum-Head-Change  Column Row Layer    Maximum-Flux-Residual          L2-NORM 
          0                 1           2             4    8     1       0.1547474025E+01       4    8    1         0.8295108407E+02      0.1487974552E+03
          0                 2           2             4    8     1       0.7204473502E+00       4    8    1         0.3871257892E+02      0.6825984350E+02
          0                 3           2             5    7     1       0.4356356882E+00       5    7    1         0.2345242143E+02      0.3723841280E+02
          0                 4           2             5    6     1       0.2280950016E+00       5    6    1         0.1236486620E+02      0.1862268652E+02
          0                 5           2             5    8     1       0.6612300998E-01       5    8    1         0.3580301657E+01      0.6245324773E+01
          0                 6           2             5    8     1       0.3847645517E-01       5    8    1         0.2102590947E+01      0.2580169969E+01
          0                 7           2             5    8     1       0.2225383619E-01       5    8    1         0.1221556922E+01      0.1299454745E+01
          0                 8           2             5    8     1       0.1283259727E-01       5    8    1         0.7059723042E+00      0.7187351283E+00
          0                 9           2             5    8     1       0.7388856908E-02       5    8    1         0.4069402914E+00      0.4092222811E+00
          0                10           2             5    8     1       0.4251250024E-02       5    8    1         0.2342665483E+00      0.2347527782E+00
                                                   Max.-Head-Change                         Max.-Flux-Residual
  Residual-Control   Outer-Iter.   Inner-Iter.     Column Row Layer    Maximum-Head-Change  Column Row Layer    Maximum-Flux-Residual          L2-NORM 
          0                11           2             5    8     1       0.2445085690E-02       5    8    1         0.1347746168E+00      0.1349088341E+00
          0                12           1             5    8     1       0.1406015982E-02       5    8    1         0.7751124560E-01      0.7756003311E-01
          0                13           1             5    8     1       0.8084359275E-03       5    8    1         0.4457080124E-01      0.4459263686E-01
          0                14           1             5    8     1       0.4648153094E-03       5    8    1         0.2562716371E-01      0.2563821152E-01
          0                15           1             5    8     1       0.2672421202E-03       5    8    1         0.1473440915E-01      0.1474036762E-01
          0                16           1             5    8     1       0.1536470364E-03       5    8    1         0.8471413576E-02      0.8474731615E-02
          0                17           1             5    8     1       0.8833663310E-04       5    8    1         0.4870510651E-02      0.4872387974E-02

    ------------------------------------------------
       NWT REQUIRED           17 OUTER ITERATIONS 
       AND A TOTAL OF         28 INNER ITERATIONS.
    ------------------------------------------------

 NO OUTPUT CONTROL FOR STRESS PERIOD   10   TIME STEP    5
 
 SOLVING FOR HEAD 
                                                   Max.-Head-Change                         Max.-Flux-Residual
  Residual-Control   Outer-Iter.   Inner-Iter.     Column Row Layer    Maximum-Head-Change  Column Row Layer    Maximum-Flux-Residual          L2-NORM 
          0                 1           2             4    7     1       0.1737829916E+01       4    7    1         0.9322933767E+02      0.1297688440E+03
          0                 2           2             4    6     1       0.7875019980E+00       4    6    1         0.4236414452E+02      0.6169375500E+02
          0                 3           2             4    6     1       0.3118848103E+00       4    6    1         0.1688497939E+02      0.2072823582E+02
          0                 4           2             4    6     1       0.1249268276E+00       4    6    1         0.6718296868E+01      0.1048021981E+02
          0                 5           2             4    8     1       0.6106171304E-01       4    8    1         0.3283062470E+01      0.4226399461E+01
          0                 6           2             4    8     1       0.3600260245E-01       4    8    1         0.1943989304E+01      0.2107048975E+01
          0                 7           2             4    8     1       0.2116844085E-01       4    8    1         0.1145370770E+01      0.1179312312E+01
          0                 8           2             4    8     1       0.1242952893E-01       4    8    1         0.6732075636E+00      0.6836452820E+00
          0                 9           2             4    8     1       0.7293451369E-02       4    8    1         0.3952215629E+00      0.3999746474E+00
          0                10           2             4    8     1       0.4278302802E-02       4    8    1         0.2318904596E+00      0.2345378189E+00
                                                   Max.-Head-Change                         Max.-Flux-Residual
  Residual-Control   Outer-Iter.   Inner-Iter.     Column Row Layer    Maximum-Head-Change  Column Row Layer    Maximum-Flux-Residual          L2-NORM 
          0                11           2             4    8     1       0.2509239503E-02       4    8    1         0.1360202933E+00      0.1376017831E+00
          0                12           2             4    8     1       0.1471567792E-02       4    8    1         0.7977481349E-01      0.8074018876E-01
          0                13           2             4    8     1       0.8629852536E-03       4    8    1         0.4678427561E-01      0.4737750659E-01
          0                14           2             4    8     1       0.5060809240E-03       4    8    1         0.2743602268E-01      0.2780132652E-01
          0                15           2             4    8     1       0.2967797522E-03       4    8    1         0.1608929318E-01      0.1631437130E-01
          0                16           2             4    8     1       0.1740397162E-03       4    8    1         0.9435197973E-02      0.9573883141E-02
          0                17           1             4    8     1       0.1020618206E-03       4    8    1         0.5533056807E-02      0.5618496174E-02
          0                18           1             4    8     1       0.5985213167E-04       4    8    1         0.3244742305E-02      0.3297366285E-02

    ------------------------------------------------
       NWT REQUIRED           18 OUTER ITERATIONS 
       AND A TOTAL OF         34 INNER ITERATIONS.
    ------------------------------------------------

 NO OUTPUT CONTROL FOR STRESS PERIOD   10   TIME STEP    6
 
 SOLVING FOR HEAD 
                                                   Max.-Head-Change                         Max.-Flux-Residual
  Residual-Control   Outer-Iter.   Inner-Iter.     Column Row Layer    Maximum-Head-Change  Column Row Layer    Maximum-Flux-Residual          L2-NORM 
          0                 1           2             5    7     1       0.1830176225E+01       5    7    1         0.9809227718E+02      0.1642881585E+03
          0                 2           2             5    8     1       0.6607045336E+00       5    8    1         0.3572207975E+02      0.6008737961E+02
          0                 3           2             5    8     1       0.3492689485E+00       5    8    1         0.1911506117E+02      0.2402483749E+02
          0                 4           2             4    7     1       0.1555309854E+00       4    7    1         0.8315862453E+01      0.1312667236E+02
          0                 5           2             4    7     1       0.9216874405E-01       4    7    1         0.4956267521E+01      0.6018450724E+01
          0                 6           2             4    7     1       0.5441692204E-01       4    7    1         0.2934307923E+01      0.3268167317E+01
          0                 7           2             4    7     1       0.3207129003E-01       4    7    1         0.1731624887E+01      0.1889375762E+01
          0                 8           2             4    7     1       0.1888666639E-01       4    7    1         0.1020330321E+01      0.1110824772E+01
          0                 9           2             4    7     1       0.1111893817E-01       4    7    1         0.6008108560E+00      0.6557809483E+00
          0                10           2             4    7     1       0.6545560589E-02       4    7    1         0.3536965133E+00      0.3875473512E+00
                                                   Max.-Head-Change                         Max.-Flux-Residual
  Residual-Control   Outer-Iter.   Inner-Iter.     Column Row Layer    Maximum-Head-Change  Column Row Layer    Maximum-Flux-Residual          L2-NORM 
          0                11           2             4    7     1       0.3853530036E-02       4    7    1         0.2082153592E+00      0.2291084517E+00
          0                12           2             4    7     1       0.2268949718E-02       4    7    1         0.1225828686E+00      0.1354700615E+00
          0                13           2             4    7     1       0.1336156957E-02       4    7    1         0.7217790361E-01      0.8011584802E-01
          0                14           2             4    7     1       0.7869769073E-03       4    7    1         0.4250565879E-01      0.4738742109E-01
          0                15           2             4    7     1       0.4635967639E-03       4    7    1         0.2503581890E-01      0.2803334524E-01
          0                16           2             4    7     1       0.2731448184E-03       4    7    1         0.1474860581E-01      0.1658636963E-01
          0                17           1             4    7     1       0.1609604237E-03       4    7    1         0.8689890474E-02      0.9814978801E-02
          0                18           1             4    7     1       0.9486757419E-04       4    7    1         0.5120956691E-02      0.5808793399E-02

    ------------------------------------------------
       NWT REQUIRED           18 OUTER ITERATIONS 
       AND A TOTAL OF         34 INNER ITERATIONS.
    ------------------------------------------------

 NO OUTPUT CONTROL FOR STRESS PERIOD   10   TIME STEP    7
 
 SOLVING FOR HEAD 
                                                   Max.-Head-Change                         Max.-Flux-Residual
  Residual-Control   Outer-Iter.   Inner-Iter.     Column Row Layer    Maximum-Head-Change  Column Row Layer    Maximum-Flux-Residual          L2-NORM 
          0                 1           2             4    6     1       0.1584995292E+01       4    6    1         0.8507373224E+02      0.1319479274E+03
          0                 2           2             4    8     1       0.6917054364E+00       4    8    1         0.3733543944E+02      0.5816054969E+02
          0                 3           2             4    8     1       0.3710492203E+00       4    8    1         0.2012617616E+02      0.2721668044E+02
          0                 4           2             5    7     1       0.1862925013E+00       5    7    1         0.1010253655E+02      0.1613110951E+02
          0                 5           2             5    7     1       0.1086026965E+00       5    7    1         0.5919174458E+01      0.7969754870E+01
          0                 6           2             5    7     1       0.6322071942E-01       5    7    1         0.3449291746E+01      0.4428143190E+01
          0                 7           2             5    7     1       0.3677676767E-01       5    7    1         0.2007585485E+01      0.2550278568E+01
          0                 8           2             5    7     1       0.2138708102E-01       5    7    1         0.1167756452E+01      0.1482598199E+01
          0                 9           2             5    7     1       0.1243600745E-01       5    7    1         0.6790705685E+00      0.8638749687E+00
          0                10           2             5    7     1       0.7231145778E-02       5    7    1         0.3948568716E+00      0.5036307307E+00
                                                   Max.-Head-Change                         Max.-Flux-Residual
  Residual-Control   Outer-Iter.   Inner-Iter.     Column Row Layer    Maximum-Head-Change  Column Row Layer    Maximum-Flux-Residual          L2-NORM 
          0                11           2             5    7     1       0.4204872814E-02       5    7    1         0.2295972284E+00      0.2936494395E+00
          0                12           2             5    7     1       0.2445285115E-02       5    7    1         0.1335106568E+00      0.1712231057E+00
          0                13           2             5    7     1       0.1422139746E-02       5    7    1         0.7764213106E-01      0.9983992003E-01
          0                14           2             5    7     1       0.8271671469E-03       5    7    1         0.4515602322E-01      0.5821752437E-01
          0                15           2             5    7     1       0.4811527841E-03       5    7    1         0.2626469599E-01      0.3394774077E-01
          0                16           2             5    7     1       0.2799053013E-03       5    7    1         0.1527804611E-01      0.1979591428E-01
          0                17           2             5    7     1       0.1628459275E-03       5    7    1         0.8887949442E-02      0.1154376673E-01
          0                18           1             5    7     1       0.9475003975E-04       5    7    1         0.5170980128E-02      0.6731726370E-02

    ------------------------------------------------
       NWT REQUIRED           18 OUTER ITERATIONS 
       AND A TOTAL OF         35 INNER ITERATIONS.
    ------------------------------------------------

 NO OUTPUT CONTROL FOR STRESS PERIOD   10   TIME STEP    8
 
 SOLVING FOR HEAD 
                                                   Max.-Head-Change                         Max.-Flux-Residual
  Residual-Control   Outer-Iter.   Inner-Iter.     Column Row Layer    Maximum-Head-Change  Column Row Layer    Maximum-Flux-Residual          L2-NORM 
          0                 1           2             4    7     1       0.1577062102E+01       4    7    1         0.8492381805E+02      0.1045250249E+03
          0                 2           2             4    7     1       0.7970992865E+00       4    7    1         0.4289051251E+02      0.5319319107E+02
          0                 3           2             4    6     1       0.2981867327E+00       4    6    1         0.1611306271E+02      0.1944161307E+02
          0                 4           2             4    6     1       0.2099529476E+00       4    6    1         0.1135229465E+02      0.1293303491E+02
          0                 5           2             4    6     1       0.1229605306E+00       4    6    1         0.6677579821E+01      0.6923220020E+01
          0                 6           2             4    6     1       0.7180735269E-01       4    6    1         0.3907912342E+01      0.3952305024E+01
          0                 7           2             4    6     1       0.4187594069E-01       4    6    1         0.2281357217E+01      0.2290485228E+01
          0                 8           2             4    6     1       0.2440399271E-01       4    6    1         0.1330188709E+01      0.1332431988E+01
          0                 9           2             4    6     1       0.1421703348E-01       4    6    1         0.7751260759E+00      0.7758161010E+00
          0                10           2             4    6     1       0.8281011459E-02       4    6    1         0.4515460788E+00      0.4518122343E+00
                                                   Max.-Head-Change                         Max.-Flux-Residual
  Residual-Control   Outer-Iter.   Inner-Iter.     Column Row Layer    Maximum-Head-Change  Column Row Layer    Maximum-Flux-Residual          L2-NORM 
          0                11           2             4    6     1       0.4823041287E-02       4    6    1         0.2630070407E+00      0.2631295214E+00
          0                12           2             4    6     1       0.2808924793E-02       4    6    1         0.1531794286E+00      0.1532424064E+00
          0                13           2             4    6     1       0.1635874336E-02       4    6    1         0.8921077674E-01      0.8924519447E-01
          0                14           2             4    6     1       0.9526975630E-03       4    6    1         0.5195484082E-01      0.5197425081E-01
          0                15           2             4    6     1       0.5548272338E-03       4    6    1         0.3025732752E-01      0.3026844868E-01
          0                16           2             4    6     1       0.3231165909E-03       4    6    1         0.1762109920E-01      0.1762752221E-01
          0                17           2             4    6     1       0.1881742150E-03       4    6    1         0.1026205503E-01      0.1026577963E-01
          0                18           1             4    6     1       0.1095874043E-03       4    6    1         0.5976337585E-02      0.5978509260E-02
          0                19           1             4    6     1       0.6382061683E-04       4    6    1         0.3480451710E-02      0.3481718860E-02

    ------------------------------------------------
       NWT REQUIRED           19 OUTER ITERATIONS 
       AND A TOTAL OF         36 INNER ITERATIONS.
    ------------------------------------------------

 NO OUTPUT CONTROL FOR STRESS PERIOD   10   TIME STEP    9
 
 SOLVING FOR HEAD 
                                                   Max.-Head-Change                         Max.-Flux-Residual
  Residual-Control   Outer-Iter.   Inner-Iter.     Column Row Layer    Maximum-Head-Change  Column Row Layer    Maximum-Flux-Residual          L2-NORM 
          0                 1           2             4    5     1       0.1598184110E+00       4    5    1         0.8578087553E+01      0.2144126232E+02
          0                 2           2             4    7     1       0.3534142523E-01       4    7    1         0.1909985620E+01      0.3097771573E+01
          0                 3           2             5    8     1      -0.3787752301E-01       5    8    1        -0.2035111038E+01      0.4309253973E+01
          0                 4           2             5    6     1       0.3673055541E-01       5    6    1         0.2047562081E+01      0.3858531823E+01
          0                 5           2             4    7     1       0.8769459458E-02       4    7    1         0.4862199474E+00      0.9178667991E+00
          0                 6           2             4    7     1       0.2954827442E-02       4    7    1         0.1641017988E+00      0.2952355062E+00
          0                 7           2             4    7     1       0.9938564371E-03       4    7    1         0.5527667828E-01      0.9660565028E-01
          0                 8           2             4    7     1       0.3337588305E-03       4    7    1         0.1858729872E-01      0.3165818888E-01
          0                 9           1             4    7     1       0.1119265221E-03       4    7    1         0.6240506332E-02      0.1038877361E-01
          0                10           1             4    7     1       0.3748764246E-04       4    7    1         0.2092303055E-02      0.3413022339E-02

    ------------------------------------------------
       NWT REQUIRED           10 OUTER ITERATIONS 
       AND A TOTAL OF         18 INNER ITERATIONS.
    ------------------------------------------------

 NO OUTPUT CONTROL FOR STRESS PERIOD   10   TIME STEP   10
 
 SOLVING FOR HEAD 
                                                   Max.-Head-Change                         Max.-Flux-Residual
  Residual-Control   Outer-Iter.   Inner-Iter.     Column Row Layer    Maximum-Head-Change  Column Row Layer    Maximum-Flux-Residual          L2-NORM 
          0                 1           2             4    5     1       0.1536920262E+00       4    5    1         0.8332169456E+01      0.2035438220E+02
          0                 2           2             4    7     1       0.3239437074E-01       4    7    1         0.1772030095E+01      0.2654284887E+01
          0                 3           2             4    6     1      -0.3802491441E-01       4    6    1        -0.2026406244E+01      0.4527958569E+01
          0                 4           2             5    6     1       0.3308302237E-01       5    6    1         0.1941516040E+01      0.3755848341E+01
          0                 5           2             4    7     1       0.8615591211E-02       4    7    1         0.4819381656E+00      0.8360991249E+00
          0                 6           2             4    7     1       0.2875211132E-02       4    7    1         0.1607899807E+00      0.2802671816E+00
          0                 7           2             4    7     1       0.9597437128E-03       4    8    1         0.5457776849E-01      0.9420125223E-01
          0                 8           2             4    8     1       0.3302636099E-03       4    8    1         0.1912810125E-01      0.3172402921E-01
          0                 9           2             4    8     1       0.1154598859E-03       4    8    1         0.6694338919E-02      0.1070297651E-01
          0                10           1             4    8     1       0.4031795159E-04       4    8    1         0.2339865380E-02      0.3617031695E-02

    ------------------------------------------------
       NWT REQUIRED           10 OUTER ITERATIONS 
       AND A TOTAL OF         19 INNER ITERATIONS.
    ------------------------------------------------

 NO OUTPUT CONTROL FOR STRESS PERIOD   10   TIME STEP   11
 
 SOLVING FOR HEAD 
                                                   Max.-Head-Change                         Max.-Flux-Residual
  Residual-Control   Outer-Iter.   Inner-Iter.     Column Row Layer    Maximum-Head-Change  Column Row Layer    Maximum-Flux-Residual          L2-NORM 
          0                 1           2             4    5     1       0.1470822147E+00       4    5    1         0.7971217409E+01      0.1937380392E+02
          0                 2           2             4    7     1       0.3006898712E-01       4    7    1         0.1643046444E+01      0.2543307949E+01
          0                 3           2             4    6     1      -0.3755343629E-01       4    6    1        -0.1999616661E+01      0.4521096185E+01
          0                 4           2             5    6     1       0.3306538277E-01       5    6    1         0.1942882530E+01      0.3640005757E+01
          0                 5           2             4    7     1       0.8574135846E-02       4    7    1         0.4780116649E+00      0.8919149729E+00
          0                 6           2             4    7     1       0.2873068667E-02       4    7    1         0.1602867667E+00      0.2926386044E+00
          0                 7           2             4    7     1       0.9619576895E-03       4    7    1         0.5370167597E-01      0.9620422313E-01
          0                 8           2             4    7     1       0.3218440276E-03       4    7    1         0.1797780289E-01      0.3166392588E-01
          0                 9           1             4    7     1       0.1076062556E-03       4    7    1         0.6014074812E-02      0.1043173157E-01
          0                10           1             4    7     1       0.3595450238E-04       4    7    1         0.2010514454E-02      0.3439541855E-02

    ------------------------------------------------
       NWT REQUIRED           10 OUTER ITERATIONS 
       AND A TOTAL OF         18 INNER ITERATIONS.
    ------------------------------------------------

 NO OUTPUT CONTROL FOR STRESS PERIOD   10   TIME STEP   12
 
 SOLVING FOR HEAD 
                                                   Max.-Head-Change                         Max.-Flux-Residual
  Residual-Control   Outer-Iter.   Inner-Iter.     Column Row Layer    Maximum-Head-Change  Column Row Layer    Maximum-Flux-Residual          L2-NORM 
          0                 1           2             4    5     1       0.1408394401E+00       4    5    1         0.7630212747E+01      0.1834619628E+02
          0                 2           2             4    7     1       0.2796400205E-01       4    7    1         0.1526437130E+01      0.2379721916E+01
          0                 3           2             4    6     1      -0.3715064952E-01       4    6    1        -0.1977180308E+01      0.4503258018E+01
          0                 4           2             5    6     1       0.3302740689E-01       5    6    1         0.1942785955E+01      0.3565755868E+01
          0                 5           2             4    7     1       0.8532678996E-02       4    7    1         0.4741124810E+00      0.9369299790E+00
          0                 6           2             4    7     1       0.2869566492E-02       4    7    1         0.1596205217E+00      0.3060220491E+00
          0                 7           2             4    7     1       0.9638664772E-03       4    7    1         0.5366867417E-01      0.1002158347E+00
          0                 8           2             4    7     1       0.3233962250E-03       4    7    1         0.1802316382E-01      0.3287634158E-01
          0                 9           1             4    7     1       0.1083959478E-03       4    7    1         0.6045971168E-02      0.1080127793E-01
          0                10           1             4    7     1       0.3629854089E-04       4    7    1         0.2026131971E-02      0.3553147675E-02

    ------------------------------------------------
       NWT REQUIRED           10 OUTER ITERATIONS 
       AND A TOTAL OF         18 INNER ITERATIONS.
    ------------------------------------------------

 NO OUTPUT CONTROL FOR STRESS PERIOD   10   TIME STEP   13
 
 SOLVING FOR HEAD 
                                                   Max.-Head-Change                         Max.-Flux-Residual
  Residual-Control   Outer-Iter.   Inner-Iter.     Column Row Layer    Maximum-Head-Change  Column Row Layer    Maximum-Flux-Residual          L2-NORM 
          0                 1           2             4    5     1       0.1349366355E+00       4    5    1         0.7307864510E+01      0.1740258672E+02
          0                 2           2             4    7     1       0.2605997972E-01       4    7    1         0.1420949051E+01      0.2233903400E+01
          0                 3           2             4    6     1      -0.3678560203E-01       4    6    1        -0.1956847992E+01      0.4487417077E+01
          0                 4           2             5    6     1       0.3300094013E-01       5    6    1         0.1942696599E+01      0.3528112329E+01
          0                 5           2             4    7     1       0.8492992666E-02       4    7    1         0.4707566296E+00      0.9661117153E+00
          0                 6           2             4    7     1       0.2863688412E-02       4    7    1         0.1589565527E+00      0.3146057201E+00
          0                 7           2             4    7     1       0.9640801952E-03       4    7    1         0.5358193960E-01      0.1027555422E+00
          0                 8           2             4    7     1       0.3241086822E-03       4    7    1         0.1803402488E-01      0.3363249613E-01
          0                 9           1             4    7     1       0.1088222407E-03       4    7    1         0.6061322057E-02      0.1102797614E-01
          0                10           1             4    7     1       0.3649610204E-04       4    7    1         0.2034701285E-02      0.3621624527E-02

    ------------------------------------------------
       NWT REQUIRED           10 OUTER ITERATIONS 
       AND A TOTAL OF         18 INNER ITERATIONS.
    ------------------------------------------------

 NO OUTPUT CONTROL FOR STRESS PERIOD   10   TIME STEP   14
 
 SOLVING FOR HEAD 
                                                   Max.-Head-Change                         Max.-Flux-Residual
  Residual-Control   Outer-Iter.   Inner-Iter.     Column Row Layer    Maximum-Head-Change  Column Row Layer    Maximum-Flux-Residual          L2-NORM 
          0                 1           2             4    5     1       0.1293523967E+00       4    5    1         0.7002990114E+01      0.1653575693E+02
          0                 2           2             4    7     1       0.2433758159E-01       4    7    1         0.1325519027E+01      0.2104127453E+01
          0                 3           2             4    6     1      -0.3645470972E-01       4    6    1        -0.1938419732E+01      0.4473337033E+01
          0                 4           2             5    6     1       0.3300192391E-01       5    6    1         0.1942613649E+01      0.3530302505E+01
          0                 5           2             4    7     1       0.8450034384E-02       4    7    1         0.4682503769E+00      0.9668030838E+00
          0                 6           2             4    7     1       0.2850010260E-02       4    7    1         0.1581590622E+00      0.3147750126E+00
          0                 7           2             4    7     1       0.9597217373E-03       4    7    1         0.5332798789E-01      0.1027945873E+00
          0                 8           2             4    7     1       0.3227188524E-03       4    7    1         0.1795309661E-01      0.3364058651E-01
          0                 9           1             4    7     1       0.1083787222E-03       4    7    1         0.6035513047E-02      0.1102928286E-01
          0                10           1             4    7     1       0.3635446327E-04       4    7    1         0.2026464388E-02      0.3621668975E-02

    ------------------------------------------------
       NWT REQUIRED           10 OUTER ITERATIONS 
       AND A TOTAL OF         18 INNER ITERATIONS.
    ------------------------------------------------

 NO OUTPUT CONTROL FOR STRESS PERIOD   10   TIME STEP   15
 
 SOLVING FOR HEAD 
                                                   Max.-Head-Change                         Max.-Flux-Residual
  Residual-Control   Outer-Iter.   Inner-Iter.     Column Row Layer    Maximum-Head-Change  Column Row Layer    Maximum-Flux-Residual          L2-NORM 
          0                 1           2             4    5     1       0.1240671017E+00       4    5    1         0.6714506044E+01      0.1573903121E+02
          0                 2           2             4    7     1       0.2277950105E-01       4    7    1         0.1239189186E+01      0.1988822627E+01
          0                 3           2             4    6     1      -0.3615475511E-01       4    6    1        -0.1921715935E+01      0.4460809021E+01
          0                 4           2             5    6     1       0.3300281195E-01       5    6    1         0.1942537334E+01      0.3532320281E+01
          0                 5           2             4    7     1       0.8411187049E-02       4    7    1         0.4659839075E+00      0.9674410269E+00
          0                 6           2             4    7     1       0.2837641386E-02       4    7    1         0.1574378932E+00      0.3149319447E+00
          0                 7           2             4    7     1       0.9557805564E-03       4    7    1         0.5309834582E-01      0.1028310571E+00
          0                 8           2             4    7     1       0.3214621041E-03       4    7    1         0.1787991675E-01      0.3364825274E-01
          0                 9           1             4    7     1       0.1079776765E-03       4    7    1         0.6012175440E-02      0.1103056982E-01
          0                10           1             4    7     1       0.3622638866E-04       4    7    1         0.2019016303E-02      0.3621740799E-02

    ------------------------------------------------
       NWT REQUIRED           10 OUTER ITERATIONS 
       AND A TOTAL OF         18 INNER ITERATIONS.
    ------------------------------------------------

 NO OUTPUT CONTROL FOR STRESS PERIOD   10   TIME STEP   16
 
 SOLVING FOR HEAD 
                                                   Max.-Head-Change                         Max.-Flux-Residual
  Residual-Control   Outer-Iter.   Inner-Iter.     Column Row Layer    Maximum-Head-Change  Column Row Layer    Maximum-Flux-Residual          L2-NORM 
          0                 1           2             4    5     1       0.1190621854E+00       4    5    1         0.6441388383E+01      0.1500629720E+02
          0                 2           2             4    7     1       0.2136996169E-01       4    7    1         0.1161086811E+01      0.1886375423E+01
          0                 3           2             4    6     1      -0.3588281367E-01       4    6    1        -0.1906573387E+01      0.4449732811E+01
          0                 4           2             5    6     1       0.3300360511E-01       5    6    1         0.1942466756E+01      0.3533871863E+01
          0                 5           2             4    7     1       0.8376053667E-02       4    7    1         0.4639338528E+00      0.9681340453E+00
          0                 6           2             4    7     1       0.2826459585E-02       4    7    1         0.1567856839E+00      0.3151712421E+00
          0                 7           2             4    7     1       0.9522205016E-03       4    7    1         0.5289075420E-01      0.1029120034E+00
          0                 8           2             4    7     1       0.3203283960E-03       4    7    1         0.1781382034E-01      0.3367528185E-01
          0                 9           1             4    7     1       0.1076166032E-03       4    7    1         0.5991126088E-02      0.1103952681E-01
          0                10           1             4    7     1       0.3611139054E-04       4    7    1         0.2012312175E-02      0.3624697592E-02

    ------------------------------------------------
       NWT REQUIRED           10 OUTER ITERATIONS 
       AND A TOTAL OF         18 INNER ITERATIONS.
    ------------------------------------------------

 NO OUTPUT CONTROL FOR STRESS PERIOD   10   TIME STEP   17
 
 SOLVING FOR HEAD 
                                                   Max.-Head-Change                         Max.-Flux-Residual
  Residual-Control   Outer-Iter.   Inner-Iter.     Column Row Layer    Maximum-Head-Change  Column Row Layer    Maximum-Flux-Residual          L2-NORM 
          0                 1           2             4    5     1       0.1143208557E+00       4    5    1         0.6182711230E+01      0.1433215252E+02
          0                 2           2             4    7     1       0.2009478538E-01       4    7    1         0.1090427586E+01      0.1795925297E+01
          0                 3           2             4    6     1      -0.3563626952E-01       4    6    1        -0.1892846138E+01      0.4439846321E+01
          0                 4           2             5    6     1       0.3300432222E-01       5    6    1         0.1942401619E+01      0.3535546350E+01
          0                 5           2             4    7     1       0.8344275642E-02       4    7    1         0.4620798324E+00      0.9686670815E+00
          0                 6           2             4    7     1       0.2816341451E-02       4    7    1         0.1561957548E+00      0.3153030280E+00
          0                 7           2             4    7     1       0.9489963989E-03       4    7    1         0.5270290054E-01      0.1029428493E+00
          0                 8           2             4    7     1       0.3193002590E-03       4    7    1         0.1775395533E-01      0.3368184913E-01
          0                 9           1             4    7     1       0.1072884890E-03       4    7    1         0.5972033762E-02      0.1104066480E-01
          0                10           1             4    7     1       0.3600659824E-04       4    7    1         0.2006218542E-02      0.3624780513E-02

    ------------------------------------------------
       NWT REQUIRED           10 OUTER ITERATIONS 
       AND A TOTAL OF         18 INNER ITERATIONS.
    ------------------------------------------------

 NO OUTPUT CONTROL FOR STRESS PERIOD   10   TIME STEP   18
 
 SOLVING FOR HEAD 
                                                   Max.-Head-Change                         Max.-Flux-Residual
  Residual-Control   Outer-Iter.   Inner-Iter.     Column Row Layer    Maximum-Head-Change  Column Row Layer    Maximum-Flux-Residual          L2-NORM 
          0                 1           2             4    5     1       0.1098270245E+00       4    5    1         0.5937588130E+01      0.1371189391E+02
          0                 2           2             4    7     1       0.1894104336E-01       4    7    1         0.1026495917E+01      0.1715727657E+01
          0                 3           2             4    6     1      -0.3541272856E-01       5    6    1        -0.1887735104E+01      0.4431074747E+01
          0                 4           2             5    6     1       0.3300504320E-01       5    6    1         0.1942340514E+01      0.3523749598E+01
          0                 5           2             4    7     1       0.8315428896E-02       4    7    1         0.4604057490E+00      0.9747586194E+00
          0                 6           2             4    7     1       0.2807106317E-02       4    7    1         0.1556598779E+00      0.3204860985E+00
          0                 7           2             4    7     1       0.9460608273E-03       4    7    1         0.5253133510E-01      0.1056011616E+00
          0                 8           2             4    7     1       0.3183815415E-03       4    7    1         0.1769946915E-01      0.3484414919E-01
          0                 9           1             4    7     1       0.1070081203E-03       4    7    1         0.5955014117E-02      0.1151057394E-01
          0                10           1             4    7     1       0.3592424480E-04       4    7    1         0.2001040713E-02      0.3806212099E-02

    ------------------------------------------------
       NWT REQUIRED           10 OUTER ITERATIONS 
       AND A TOTAL OF         18 INNER ITERATIONS.
    ------------------------------------------------

 NO OUTPUT CONTROL FOR STRESS PERIOD   10   TIME STEP   19
 
 SOLVING FOR HEAD 
                                                   Max.-Head-Change                         Max.-Flux-Residual
  Residual-Control   Outer-Iter.   Inner-Iter.     Column Row Layer    Maximum-Head-Change  Column Row Layer    Maximum-Flux-Residual          L2-NORM 
          0                 1           2             4    5     1       0.1055660199E+00       4    5    1         0.5705211591E+01      0.1314014250E+02
          0                 2           2             4    7     1       0.1784623925E-01       4    7    1         0.9669913137E+00      0.1644065661E+01
          0                 3           2             4    6     1      -0.3521063552E-01       5    6    1        -0.1885547228E+01      0.4423211112E+01
          0                 4           2             5    6     1       0.3300561696E-01       5    6    1         0.1942284675E+01      0.3525173712E+01
          0                 5           2             4    7     1       0.8285932323E-02       4    7    1         0.4587297756E+00      0.9752565231E+00
          0                 6           2             4    7     1       0.2797385001E-02       4    7    1         0.1551104187E+00      0.3206260967E+00
          0                 7           2             4    7     1       0.9428404112E-03       4    7    1         0.5235012193E-01      0.1056404021E+00
          0                 8           2             4    7     1       0.3173101570E-03       4    7    1         0.1763940288E-01      0.3485510487E-01
          0                 9           1             4    7     1       0.1066504662E-03       4    7    1         0.5935021327E-02      0.1151361792E-01
          0                10           1             4    7     1       0.3580453258E-04       4    7    1         0.1994364043E-02      0.3807052806E-02

    ------------------------------------------------
       NWT REQUIRED           10 OUTER ITERATIONS 
       AND A TOTAL OF         18 INNER ITERATIONS.
    ------------------------------------------------

 NO OUTPUT CONTROL FOR STRESS PERIOD   10   TIME STEP   20
 
 SOLVING FOR HEAD 
                                                   Max.-Head-Change                         Max.-Flux-Residual
  Residual-Control   Outer-Iter.   Inner-Iter.     Column Row Layer    Maximum-Head-Change  Column Row Layer    Maximum-Flux-Residual          L2-NORM 
          0                 1           2             4    5     1       0.1015260997E+00       4    5    1         0.5484837521E+01      0.1257298248E+02
          0                 2           2             4    7     1       0.1689161858E-01       4    7    1         0.9140572520E+00      0.1565329420E+01
          0                 3           2             5    6     1      -0.3472897969E-01       5    6    1        -0.1864870834E+01      0.4409154052E+01
          0                 4           2             5    6     1       0.3686311399E-01       5    6    1         0.2056059223E+01      0.3575718439E+01
          0                 5           2             4    7     1       0.8257093850E-02       4    7    1         0.4568547751E+00      0.9935548776E+00
          0                 6           2             4    7     1       0.2788367301E-02       4    7    1         0.1544098533E+00      0.3258341656E+00
          0                 7           2             4    7     1       0.9407445603E-03       4    7    1         0.5213624719E-01      0.1082773330E+00
          0                 8           2             4    7     1       0.3171199547E-03       4    7    1         0.1758762095E-01      0.3598583369E-01
          0                 9           1             4    7     1       0.1068153448E-03       4    7    1         0.5927994548E-02      0.1196217309E-01
          0                10           1             4    7     1       0.3595235681E-04       4    7    1         0.1996501635E-02      0.3977054589E-02

    ------------------------------------------------
       NWT REQUIRED           10 OUTER ITERATIONS 
       AND A TOTAL OF         18 INNER ITERATIONS.
    ------------------------------------------------

 NO OUTPUT CONTROL FOR STRESS PERIOD   10   TIME STEP   21
 
 SOLVING FOR HEAD 
                                                   Max.-Head-Change                         Max.-Flux-Residual
  Residual-Control   Outer-Iter.   Inner-Iter.     Column Row Layer    Maximum-Head-Change  Column Row Layer    Maximum-Flux-Residual          L2-NORM 
          0                 1           2             4    5     1       0.9769571052E-01       4    5    1         0.5275741154E+01      0.1201017914E+02
          0                 2           2             4    7     1       0.1601877579E-01       4    7    1         0.8655682202E+00      0.1535353867E+01
          0                 3           2             5    6     1      -0.3617399062E-01       5    6    1        -0.1941716118E+01      0.4436891085E+01
          0                 4           2             5    6     1       0.2961922421E-01       5    6    1         0.1641211714E+01      0.3355270382E+01
          0                 5           2             4    7     1       0.8235287962E-02       4    7    1         0.4555139274E+00      0.9953900533E+00
          0                 6           2             4    7     1       0.2782386241E-02       4    7    1         0.1540075765E+00      0.3314321636E+00
          0                 7           2             4    7     1       0.9393486739E-03       4    7    1         0.5202732323E-01      0.1103722110E+00
          0                 8           2             4    7     1       0.3169049766E-03       4    7    1         0.1756281621E-01      0.3676074043E-01
          0                 9           1             4    7     1       0.1068425693E-03       4    7    1         0.5924503311E-02      0.1224509469E-01
          0                10           1             4    7     1       0.3599905917E-04       4    7    1         0.1997215331E-02      0.4079325334E-02

    ------------------------------------------------
       NWT REQUIRED           10 OUTER ITERATIONS 
       AND A TOTAL OF         18 INNER ITERATIONS.
    ------------------------------------------------

 NO OUTPUT CONTROL FOR STRESS PERIOD   10   TIME STEP   22
 
 SOLVING FOR HEAD 
                                                   Max.-Head-Change                         Max.-Flux-Residual
  Residual-Control   Outer-Iter.   Inner-Iter.     Column Row Layer    Maximum-Head-Change  Column Row Layer    Maximum-Flux-Residual          L2-NORM 
          0                 1           2             4    5     1       0.9406700412E-01       4    5    1         0.5077501930E+01      0.1155398481E+02
          0                 2           2             4    7     1       0.1523692455E-01       4    7    1         0.8219175129E+00      0.1469939254E+01
          0                 3           2             5    6     1      -0.3514330352E-01       5    6    1        -0.1884975373E+01      0.4405384315E+01
          0                 4           2             4    7     1       0.2429316198E-01       4    7    1         0.1342738180E+01      0.3213071506E+01
          0                 5           2             4    7     1       0.8216617694E-02       4    7    1         0.4543577324E+00      0.1061401336E+01
          0                 6           2             4    7     1       0.2777556065E-02       4    7    1         0.1536634797E+00      0.3513885640E+00
          0                 7           2             4    7     1       0.9384092483E-03       4    7    1         0.5194014541E-01      0.1164712598E+00
          0                 8           2             4    7     1       0.3168711668E-03       4    7    1         0.1754669055E-01      0.3864445730E-01
          0                 9           1             4    7     1       0.1069392783E-03       4    7    1         0.5924454727E-02      0.1283260595E-01
          0                10           1             4    7     1       0.3607117353E-04       4    7    1         0.1999244698E-02      0.4264207162E-02

    ------------------------------------------------
       NWT REQUIRED           10 OUTER ITERATIONS 
       AND A TOTAL OF         18 INNER ITERATIONS.
    ------------------------------------------------

 NO OUTPUT CONTROL FOR STRESS PERIOD   10   TIME STEP   23
 
 SOLVING FOR HEAD 
                                                   Max.-Head-Change                         Max.-Flux-Residual
  Residual-Control   Outer-Iter.   Inner-Iter.     Column Row Layer    Maximum-Head-Change  Column Row Layer    Maximum-Flux-Residual          L2-NORM 
          0                 1           2             4    5     1       0.9063562837E-01       4    5    1         0.4889979010E+01      0.1117784777E+02
          0                 2           2             4    7     1       0.1453523843E-01       4    7    1         0.7827892002E+00      0.1429992256E+01
          0                 3           2             5    6     1      -0.3498417432E-01       5    6    1        -0.1873223249E+01      0.4394707840E+01
          0                 4           2             4    7     1       0.2423928694E-01       4    7    1         0.1339566677E+01      0.3215616360E+01
          0                 5           2             4    7     1       0.8199664483E-02       4    7    1         0.4533580368E+00      0.1063048436E+01
          0                 6           2             4    7     1       0.2772235331E-02       4    7    1         0.1533489754E+00      0.3519801312E+00
          0                 7           2             4    7     1       0.9367447359E-03       4    7    1         0.5184147241E-01      0.1166795555E+00
          0                 8           2             4    7     1       0.3163524475E-03       4    7    1         0.1751583479E-01      0.3871645526E-01
          0                 9           1             4    7     1       0.1067783570E-03       4    7    1         0.5914843635E-02      0.1285721209E-01
          0                10           1             4    7     1       0.3602151638E-04       4    7    1         0.1996264773E-02      0.4272554004E-02

    ------------------------------------------------
       NWT REQUIRED           10 OUTER ITERATIONS 
       AND A TOTAL OF         18 INNER ITERATIONS.
    ------------------------------------------------

 NO OUTPUT CONTROL FOR STRESS PERIOD   10   TIME STEP   24
 
 SOLVING FOR HEAD 
                                                   Max.-Head-Change                         Max.-Flux-Residual
  Residual-Control   Outer-Iter.   Inner-Iter.     Column Row Layer    Maximum-Head-Change  Column Row Layer    Maximum-Flux-Residual          L2-NORM 
          0                 1           2             4    5     1       0.8738783027E-01       4    5    1         0.4712532948E+01      0.1083076466E+02
          0                 2           2             4    7     1       0.1390559871E-01       4    7    1         0.7476739011E+00      0.1397188857E+01
          0                 3           2             5    6     1      -0.3382807369E-01       5    6    1        -0.1861927418E+01      0.4384829728E+01
          0                 4           2             4    7     1       0.2419116826E-01       4    7    1         0.1336723228E+01      0.3203769258E+01
          0                 5           2             4    7     1       0.8184357338E-02       4    7    1         0.4524655979E+00      0.1069006410E+01
          0                 6           2             4    7     1       0.2767365110E-02       4    7    1         0.1530645908E+00      0.3567870981E+00
          0                 7           2             4    7     1       0.9352212737E-03       4    7    1         0.5175101134E-01      0.1190935652E+00
          0                 8           2             4    7     1       0.3158927237E-03       4    7    1         0.1748759987E-01      0.3975699430E-01
          0                 9           1             4    7     1       0.1066480391E-03       4    7    1         0.5906362024E-02      0.1327334427E-01
          0                10           1             4    7     1       0.3598853831E-04       4    7    1         0.1993880126E-02      0.4431847433E-02

    ------------------------------------------------
       NWT REQUIRED           10 OUTER ITERATIONS 
       AND A TOTAL OF         18 INNER ITERATIONS.
    ------------------------------------------------

 NO OUTPUT CONTROL FOR STRESS PERIOD   10   TIME STEP   25
 
 SOLVING FOR HEAD 
                                                   Max.-Head-Change                         Max.-Flux-Residual
  Residual-Control   Outer-Iter.   Inner-Iter.     Column Row Layer    Maximum-Head-Change  Column Row Layer    Maximum-Flux-Residual          L2-NORM 
          0                 1           2             4    5     1       0.8431237656E-01       4    5    1         0.4544543988E+01      0.1050991950E+02
          0                 2           2             4    7     1       0.1334052539E-01       4    7    1         0.7161570482E+00      0.1368828689E+01
          0                 3           2             5    6     1      -0.3365127416E-01       5    6    1        -0.1852042251E+01      0.4376106793E+01
          0                 4           2             4    7     1       0.2414786541E-01       4    7    1         0.1334172755E+01      0.3206313249E+01
          0                 5           2             4    7     1       0.8170724167E-02       4    7    1         0.4516621322E+00      0.1069833607E+01
          0                 6           2             4    7     1       0.2763076216E-02       4    7    1         0.1528116590E+00      0.3570560234E+00
          0                 7           2             4    7     1       0.9338731381E-03       4    7    1         0.5167145003E-01      0.1191811128E+00
          0                 8           2             4    7     1       0.3154693416E-03       4    7    1         0.1746259431E-01      0.3978553005E-01
          0                 9           1             4    7     1       0.1065152054E-03       4    7    1         0.5898510083E-02      0.1328265663E-01
          0                10           1             4    7     1       0.3594690662E-04       4    7    1         0.1991416974E-02      0.4434889977E-02

    ------------------------------------------------
       NWT REQUIRED           10 OUTER ITERATIONS 
       AND A TOTAL OF         18 INNER ITERATIONS.
    ------------------------------------------------

 NO OUTPUT CONTROL FOR STRESS PERIOD   10   TIME STEP   26
 
 SOLVING FOR HEAD 
                                                   Max.-Head-Change                         Max.-Flux-Residual
  Residual-Control   Outer-Iter.   Inner-Iter.     Column Row Layer    Maximum-Head-Change  Column Row Layer    Maximum-Flux-Residual          L2-NORM 
          0                 1           2             4    5     1       0.8139876602E-01       4    5    1         0.4385434771E+01      0.1021192975E+02
          0                 2           2             4    7     1       0.1283334514E-01       4    7    1         0.6878675648E+00      0.1344624170E+01
          0                 3           2             5    6     1      -0.3349041154E-01       5    6    1        -0.1843047007E+01      0.4368260350E+01
          0                 4           2             4    7     1       0.2410902144E-01       4    7    1         0.1331884846E+01      0.3208622014E+01
          0                 5           2             4    7     1       0.8158495128E-02       4    7    1         0.4509414018E+00      0.1070584165E+01
          0                 6           2             4    7     1       0.2759229149E-02       4    7    1         0.1525847784E+00      0.3572999564E+00
          0                 7           2             4    7     1       0.9326639107E-03       4    7    1         0.5160008504E-01      0.1192604990E+00
          0                 8           2             4    7     1       0.3150895920E-03       4    7    1         0.1744016531E-01      0.3981139717E-01
          0                 9           1             4    7     1       0.1063960625E-03       4    7    1         0.5891467323E-02      0.1329109527E-01
          0                10           1             4    7     1       0.3590956607E-04       4    7    1         0.1989207698E-02      0.4437646123E-02

    ------------------------------------------------
       NWT REQUIRED           10 OUTER ITERATIONS 
       AND A TOTAL OF         18 INNER ITERATIONS.
    ------------------------------------------------

 NO OUTPUT CONTROL FOR STRESS PERIOD   10   TIME STEP   27
 
 SOLVING FOR HEAD 
                                                   Max.-Head-Change                         Max.-Flux-Residual
  Residual-Control   Outer-Iter.   Inner-Iter.     Column Row Layer    Maximum-Head-Change  Column Row Layer    Maximum-Flux-Residual          L2-NORM 
          0                 1           2             4    5     1       0.7863735561E-01       4    5    1         0.4234674869E+01      0.9934659192E+01
          0                 2           2             4    7     1       0.1237798783E-01       4    7    1         0.6624683758E+00      0.1323932540E+01
          0                 3           2             5    6     1      -0.3334419419E-01       5    6    1        -0.1834869566E+01      0.4361217956E+01
          0                 4           2             4    7     1       0.2407416720E-01       4    7    1         0.1329831998E+01      0.3210713129E+01
          0                 5           2             4    7     1       0.8147521814E-02       4    7    1         0.4502946959E+00      0.1071263807E+01
          0                 6           2             4    7     1       0.2755777007E-02       4    7    1         0.1523811940E+00      0.3575207596E+00
          0                 7           2             4    7     1       0.9315787797E-03       4    7    1         0.5153604591E-01      0.1193323323E+00
          0                 8           2             4    7     1       0.3147487982E-03       4    7    1         0.1742003799E-01      0.3983479427E-01
          0                 9           1             4    7     1       0.1062891362E-03       4    7    1         0.5885147019E-02      0.1329872512E-01
          0                10           1             4    7     1       0.3587605179E-04       4    7    1         0.1987224931E-02      0.4440137115E-02

    ------------------------------------------------
       NWT REQUIRED           10 OUTER ITERATIONS 
       AND A TOTAL OF         18 INNER ITERATIONS.
    ------------------------------------------------

 NO OUTPUT CONTROL FOR STRESS PERIOD   10   TIME STEP   28
 
 SOLVING FOR HEAD 
                                                   Max.-Head-Change                         Max.-Flux-Residual
  Residual-Control   Outer-Iter.   Inner-Iter.     Column Row Layer    Maximum-Head-Change  Column Row Layer    Maximum-Flux-Residual          L2-NORM 
          0                 1           2             4    5     1       0.7601902253E-01       4    5    1         0.4091762418E+01      0.9676162061E+01
          0                 2           2             4    7     1       0.1196904558E-01       4    7    1         0.6396589422E+00      0.1306104688E+01
          0                 3           2             5    6     1      -0.3321141773E-01       5    6    1        -0.1827442774E+01      0.4354908443E+01
          0                 4           2             4    7     1       0.2404288072E-01       4    7    1         0.1327989471E+01      0.3212601549E+01
          0                 5           2             4    7     1       0.8137669976E-02       4    7    1         0.4497141808E+00      0.1071876777E+01
          0                 6           2             4    7     1       0.2752676896E-02       4    7    1         0.1521984120E+00      0.3577195953E+00
          0                 7           2             4    7     1       0.9306039847E-03       4    7    1         0.5147853538E-01      0.1193969141E+00
          0                 8           2             4    7     1       0.3144425319E-03       4    7    1         0.1740195653E-01      0.3985579490E-01
          0                 9           1             4    7     1       0.1061929950E-03       4    7    1         0.5879466771E-02      0.1330556178E-01
          0                10           1             4    7     1       0.3584590013E-04       4    7    1         0.1985442054E-02      0.4442365174E-02

    ------------------------------------------------
       NWT REQUIRED           10 OUTER ITERATIONS 
       AND A TOTAL OF         18 INNER ITERATIONS.
    ------------------------------------------------

 NO OUTPUT CONTROL FOR STRESS PERIOD   10   TIME STEP   29
 
 SOLVING FOR HEAD 
                                                   Max.-Head-Change                         Max.-Flux-Residual
  Residual-Control   Outer-Iter.   Inner-Iter.     Column Row Layer    Maximum-Head-Change  Column Row Layer    Maximum-Flux-Residual          L2-NORM 
          0                 1           2             4    5     1       0.7353501154E-01       4    5    1         0.3956225452E+01      0.9434674373E+01
          0                 2           2             4    7     1       0.1160159273E-01       4    7    1         0.6191656500E+00      0.1290634559E+01
          0                 3           2             5    6     1      -0.3309096785E-01       5    6    1        -0.1820704313E+01      0.4349270519E+01
          0                 4           2             4    7     1       0.2401515090E-01       4    7    1         0.1326334570E+01      0.3213971931E+01
          0                 5           2             4    7     1       0.8128698250E-02       4    7    1         0.4492005529E+00      0.1072037507E+01
          0                 6           2             4    7     1       0.2749760129E-02       4    7    1         0.1520313438E+00      0.3577705538E+00
          0                 7           2             4    7     1       0.9296562297E-03       4    7    1         0.5142422541E-01      0.1194119619E+00
          0                 8           2             4    7     1       0.3141347194E-03       4    7    1         0.1738431093E-01      0.3986026761E-01
          0                 9           1             4    7     1       0.1060930644E-03       4    7    1         0.5873736270E-02      0.1330688409E-01
          0                10           1             4    7     1       0.3581346905E-04       4    7    1         0.1983581791E-02      0.4442753661E-02

    ------------------------------------------------
       NWT REQUIRED           10 OUTER ITERATIONS 
       AND A TOTAL OF         18 INNER ITERATIONS.
    ------------------------------------------------

 NO OUTPUT CONTROL FOR STRESS PERIOD   10   TIME STEP   30



 STREAM LISTING     PERIOD     10   STEP       30

 LAYER ROW COL. STREAM  RCH.  FLOW INTO     FLOW TO   FLOW OUT OF   OVRLND.     DIRECT     STREAM       STREAM     STREAM     STREAM   STREAMBED  STREAMBED
                SEG.NO.  NO.  STRM. RCH.    AQUIFER    STRM. RCH.    RUNOFF     PRECIP       ET          HEAD       DEPTH      WIDTH   CONDCTNC.   GRADIENT

   1    1    1     1     1    1.7625E+01  2.0521E-01   1.7420E+01  0.000E+00  0.000E+00  0.000E+00  1.09411E+03  1.059E+00  1.124E+01  5.056E-02  1.353E+00
   1    2    2     1     2    1.7420E+01  3.1649E-01   1.7103E+01  0.000E+00  0.000E+00  0.000E+00  1.08911E+03  1.054E+00  1.115E+01  7.807E-02  1.351E+00
   1    3    3     1     3    1.7103E+01  2.6863E-01   1.6835E+01  0.000E+00  0.000E+00  0.000E+00  1.08347E+03  1.049E+00  1.106E+01  6.635E-02  1.350E+00
   1    3    4     1     4    1.6835E+01  2.4632E-01   1.6588E+01  0.000E+00  0.000E+00  0.000E+00  1.07845E+03  1.044E+00  1.097E+01  6.091E-02  1.348E+00
   1    4    5     2     1    1.4588E+01  3.0175E-01   1.4286E+01  0.000E+00  0.000E+00  0.000E+00  1.07280E+03  8.686E-01  1.200E+01  7.800E-02  1.290E+00
   1    5    6     2     2    1.4286E+01  2.3154E-01   1.4055E+01  0.000E+00  0.000E+00  0.000E+00  1.06737E+03  8.590E-01  1.200E+01  6.000E-02  1.286E+00
   1    6    6     2     3    1.4055E+01  2.3103E-01   1.3824E+01  0.000E+00  0.000E+00  0.000E+00  1.06264E+03  8.505E-01  1.200E+01  6.000E-02  1.284E+00
   1    7    6     2     4    1.3824E+01  2.3052E-01   1.3593E+01  0.000E+00  0.000E+00  0.000E+00  1.05792E+03  8.421E-01  1.200E+01  6.000E-02  1.281E+00
   1    8    6     2     5    1.3593E+01  2.3001E-01   1.3363E+01  0.000E+00  0.000E+00  0.000E+00  1.05319E+03  8.335E-01  1.200E+01  6.000E-02  1.278E+00
   1    3    5     3     1    2.0000E+00  2.8252E-01   1.7175E+00  0.000E+00  0.000E+00  0.000E+00  1.07555E+03  1.909E+00  9.636E+00  7.227E-02  1.955E+00
   1    3    6     3     2    1.7175E+00  2.4905E-01   1.4684E+00  0.000E+00  0.000E+00  0.000E+00  1.07264E+03  1.727E+00  8.909E+00  6.682E-02  1.864E+00
   1    3    7     3     3    1.4684E+00  1.9718E-01   1.2712E+00  0.000E+00  0.000E+00  0.000E+00  1.06987E+03  1.555E+00  8.218E+00  5.547E-02  1.777E+00
   1    4    8     3     4    1.2712E+00  2.2567E-01   1.0456E+00  0.000E+00  0.000E+00  0.000E+00  1.06682E+03  1.364E+00  7.455E+00  6.709E-02  1.682E+00
   1    5    8     3     5    1.0456E+00  1.5790E-01   8.8768E-01  0.000E+00  0.000E+00  0.000E+00  1.06362E+03  1.164E+00  6.655E+00  4.991E-02  1.582E+00
   1    6    8     3     6    8.8768E-01  5.5980E-02   8.3170E-01  0.000E+00  0.000E+00  0.000E+00  1.06158E+03  1.036E+00  6.145E+00  1.844E-02  1.518E+00
   1    5   10     4     1    1.0000E+01  9.0919E-02   9.9091E+00  0.000E+00  0.000E+00  0.000E+00  1.07836E+03  6.368E-01  1.000E+01  2.500E-02  1.212E+00
   1    5    9     4     2    9.9091E+00  1.8158E-01   9.7275E+00  0.000E+00  0.000E+00  0.000E+00  1.07154E+03  6.315E-01  1.000E+01  5.000E-02  1.211E+00
   1    6    8     4     3    9.7275E+00  1.2689E-01   9.6006E+00  0.000E+00  0.000E+00  0.000E+00  1.06381E+03  6.256E-01  1.000E+01  3.500E-02  1.209E+00
   1    6    8     5     1    1.0432E+01  2.2686E-01   1.0205E+01  0.000E+00  0.000E+00  0.000E+00  1.05868E+03  6.790E-01  1.542E+01  6.166E-02  1.226E+00
   1    7    7     5     2    1.0205E+01  2.7894E-01   9.9265E+00  0.000E+00  0.000E+00  0.000E+00  1.05417E+03  6.732E-01  1.519E+01  7.594E-02  1.224E+00
   1    8    7     5     3    9.9265E+00  1.9221E-01   9.7343E+00  0.000E+00  0.000E+00  0.000E+00  1.04992E+03  6.676E-01  1.497E+01  5.241E-02  1.223E+00
   1    8    6     5     4    9.7343E+00  1.3577E-01   9.5985E+00  0.000E+00  0.000E+00  0.000E+00  1.04691E+03  6.637E-01  1.482E+01  3.706E-02  1.221E+00
   1    9    6     6     1    1.1754E+01  2.2631E-01   1.1528E+01  0.000E+00  0.000E+00  0.000E+00  1.04350E+03  7.719E-01  1.200E+01  6.000E-02  1.257E+00
   1   10    7     6     2    1.1528E+01  2.2577E-01   1.1302E+01  0.000E+00  0.000E+00  0.000E+00  1.03894E+03  7.629E-01  1.200E+01  6.000E-02  1.254E+00
   1   11    7     6     3    1.1302E+01  2.2523E-01   1.1077E+01  0.000E+00  0.000E+00  0.000E+00  1.03439E+03  7.538E-01  1.200E+01  6.000E-02  1.251E+00
   1   12    7     6     4    1.1077E+01  2.2468E-01   1.0852E+01  0.000E+00  0.000E+00  0.000E+00  1.02984E+03  7.447E-01  1.200E+01  6.000E-02  1.248E+00
   1   13    7     6     5    1.0852E+01 -3.6876E-02   1.0889E+01  0.000E+00  0.000E+00  0.000E+00  1.02665E+03  7.408E-01  1.200E+01  2.400E-01 -5.122E-02
   1   14    9     7     1    1.5000E+02  1.3691E+00   1.4863E+02  0.000E+00  0.000E+00  0.000E+00  1.03987E+03  2.288E+00  5.529E+01  5.593E-01  8.159E-01
   1   13    8     7     2    1.4863E+02  1.9236E+00   1.4671E+02  0.000E+00  0.000E+00  0.000E+00  1.03478E+03  2.279E+00  5.525E+01  6.148E-01  1.043E+00
   1   13    7     7     3    1.4671E+02  1.6111E+00   1.4510E+02  0.000E+00  0.000E+00  0.000E+00  1.02969E+03  2.269E+00  5.521E+01  5.584E-01  9.617E-01
   1   13    6     8     1    1.5598E+02  9.8167E-01   1.5500E+02  0.000E+00  0.000E+00  0.000E+00  1.02473E+03  2.855E+00  4.140E+01  4.219E-01  7.757E-01
   1   13    5     8     2    1.5500E+02  2.4973E-01   1.5475E+02  0.000E+00  0.000E+00  0.000E+00  1.01848E+03  2.851E+00  4.134E+01  4.212E-01  1.976E-01
   1   13    4     8     3    1.5475E+02 -2.1465E+00   1.5690E+02  0.000E+00  0.000E+00  0.000E+00  1.01223E+03  2.857E+00  4.143E+01  4.222E+00 -1.695E-01
   1   13    3     8     4    1.5690E+02 -3.5213E+00   1.6042E+02  0.000E+00  0.000E+00  0.000E+00  1.00600E+03  2.877E+00  4.171E+01  4.251E+00 -2.761E-01
   1   13    2     8     5    1.6042E+02 -2.5519E+00   1.6297E+02  0.000E+00  0.000E+00  0.000E+00  9.99772E+02  2.897E+00  4.201E+01  4.281E+00 -1.987E-01
   1   13    1     8     6    1.6297E+02 -1.9705E+00   1.6494E+02  0.000E+00  0.000E+00  0.000E+00  9.94787E+02  2.912E+00  4.223E+01  2.582E+00 -2.544E-01
   1    8    6     9     1    1.1208E+01  0.0000E+00   1.1208E+01  0.000E+00  0.000E+00  0.000E+00  1.08118E+03  2.427E+00  4.000E+00  0.000E+00  1.809E+00
   1    8    5     9     2    1.1208E+01  0.0000E+00   1.1208E+01  0.000E+00  0.000E+00  0.000E+00  1.08068E+03  2.427E+00  4.000E+00  0.000E+00  1.809E+00





UNSATURATED ZONE PACKAGE VOLUMETRIC BUDGET FOR  TIME STEP    30 STRESS PERIOD   10
  ------------------------------------------------------------------------------



     CUMULATIVE VOLUMES      L**3       RATES FOR THIS TIME STEP      L**3/T
     ------------------                 ------------------------

           IN:                                      IN:
           ---                                      ---
        INFILTRATION =  1927964047.2343          INFILTRATION =          12.0557

          OUT:                                     OUT:
          ----                                     ----
              UZF ET =   426118026.3409                UZF ET =          12.0675
        UZF RECHARGE =   962455393.4844          UZF RECHARGE =          12.3021

            IN - OUT =   539390627.4090              IN - OUT =         -12.3139

          STORAGE:                                 STORAGE:
          --------                                 --------
      STORAGE CHANGE =   539391019.7482        STORAGE CHANGE =         -12.3139

 PERCENT DISCREPANCY IS DIFFERENCE BETWEEN IN-OUT MINUS CHANGE IN STORAGE
 DIVIDED BY THE AVERAGE OF IN AND OUT TIMES 100

 PERCENT DISCREPANCY =          -0.00     PERCENT DISCREPANCY =           0.00






1
  VOLUMETRIC BUDGET FOR AGRICULTURAL FIELDS AT  END OF TIME STEP   30, STRESS PERIOD  10
  ------------------------------------------------------------------------------

     CUMULATIVE VOLUMES      L**3       RATES FOR THIS TIME STEP      L**3/T
     ------------------                 ------------------------

           IN:                                      IN:
           ---                                      ---
               AG WELLS  =  1630378752.0000                 AG WELLS  =           0.0000
      DIVERSION SEGMENTS =   277447584.0000        DIVERSION SEGMENTS =          11.2080
           GW IRRIGATION =           0.0000             GW IRRIGATION =           0.0000
           SW IRRIGATION =           0.0000             SW IRRIGATION =           0.0000
        SYSTEM LOSSES GW =           0.0000          SYSTEM LOSSES GW =           0.0000
        SYSTEM LOSSES SW =           0.0000          SYSTEM LOSSES SW =           0.0000

                TOTAL IN =  1907826304.0000                  TOTAL IN =          11.2080

          OUT:                                     OUT:
          ----                                     ----
               AG WELLS  =           0.0000                 AG WELLS  =           0.0000
      DIVERSION SEGMENTS =           0.0000        DIVERSION SEGMENTS =           0.0000
           GW IRRIGATION =  1630378752.0000             GW IRRIGATION =           0.0000
           SW IRRIGATION =   277452768.0000             SW IRRIGATION =          11.2082
        SYSTEM LOSSES GW =           0.0000          SYSTEM LOSSES GW =           0.0000
        SYSTEM LOSSES SW =           0.0000          SYSTEM LOSSES SW =           0.0000

               TOTAL OUT =  1907831552.0000                 TOTAL OUT =          11.2082

                IN - OUT =       -5248.0000                  IN - OUT =      -2.2411E-04

     PERCENT DISCREPANCY =          -0.00         PERCENT DISCREPANCY =          -0.00



1
  VOLUMETRIC BUDGET FOR ENTIRE MODEL AT END OF TIME STEP   30, STRESS PERIOD  10
  ------------------------------------------------------------------------------

     CUMULATIVE VOLUMES      L**3       RATES FOR THIS TIME STEP      L**3/T
     ------------------                 ------------------------

           IN:                                      IN:
           ---                                      ---
             STORAGE     =  1795654656.0000               STORAGE     =          20.9406
       CONSTANT HEAD     =           0.0000         CONSTANT HEAD     =           0.0000
     HEAD DEP BOUNDS     =     6839690.5000       HEAD DEP BOUNDS     =           0.2880
      STREAM LEAKAGE     =   280639040.0000        STREAM LEAKAGE     =          11.7002
        UZF RECHARGE     =   962455296.0000          UZF RECHARGE     =          12.3021
               GW ET     =           0.0000                 GW ET     =           0.0000
     SURFACE LEAKAGE     =           0.0000       SURFACE LEAKAGE     =           0.0000
           AG WELLS      =           0.0000             AG WELLS      =           0.0000

                TOTAL IN =  3045588736.0000                  TOTAL IN =          45.2309

          OUT:                                     OUT:
          ----                                     ----
             STORAGE     =  1162431232.0000               STORAGE     =          34.7133
       CONSTANT HEAD     =           0.0000         CONSTANT HEAD     =           0.0000
     HEAD DEP BOUNDS     =     6833343.5000       HEAD DEP BOUNDS     =           0.2869
      STREAM LEAKAGE     =   245945888.0000        STREAM LEAKAGE     =          10.2270
        UZF RECHARGE     =           0.0000          UZF RECHARGE     =           0.0000
               GW ET     =           0.0000                 GW ET     =           0.0000
     SURFACE LEAKAGE     =           0.0000       SURFACE LEAKAGE     =           0.0000
           AG WELLS      =  1630378752.0000             AG WELLS      =           0.0000

               TOTAL OUT =  3045588992.0000                 TOTAL OUT =          45.2273

                IN - OUT =        -256.0000                  IN - OUT =       3.6316E-03

     PERCENT DISCREPANCY =          -0.00         PERCENT DISCREPANCY =           0.01






         TIME SUMMARY AT END OF TIME STEP   30 IN STRESS PERIOD   10
                    SECONDS     MINUTES      HOURS       DAYS        YEARS
                    -----------------------------------------------------------
   TIME STEP LENGTH  87667.      1461.1      24.352      1.0147     2.77799E-03
 STRESS PERIOD TIME 2.63000E+06  43833.      730.56      30.440     8.33397E-02
         TOTAL TIME 2.37564E+07 3.95940E+05  6599.0      274.96     0.75279    
1
1
                            STRESS PERIOD NO.   11, LENGTH =   2630000.    
                            -----------------------------------------------

                              NUMBER OF TIME STEPS =    30

                               MULTIPLIER FOR DELT =     1.000

                            INITIAL TIME STEP SIZE =   87666.66    

 REUSING NON-PARAMETER GHB CELLS FROM LAST STRESS PERIOD

      2 GHB CELLS

 REUSING STREAM SEGMENT DATA FROM LAST STRESS PERIOD



            AREAL INFILTRATION RATE
 READING ON UNIT   19 WITH FORMAT: (FREE)              

            1           2           3           4           5           6           7           8           9          10
 ........................................................................................................................
   1   1.0000E-10  2.0000E-10   0.000       0.000       0.000       0.000       0.000       0.000       0.000       0.000    
   2   2.0000E-10  1.0000E-10  2.0000E-10   0.000       0.000      8.0000E-10  8.0000E-10  5.0000E-10   0.000       0.000    
   3    0.000      5.0000E-10  1.0000E-10  1.0000E-10  8.0000E-10  8.0000E-10  5.0000E-10  5.0000E-10   0.000       0.000    
   4   8.0000E-10  5.0000E-10  1.0000E-10  1.0000E-10  1.0000E-10  1.0000E-10  1.0000E-10  1.0000E-10  2.0000E-10   0.000    
   5   8.0000E-10  5.0000E-10  1.0000E-10  1.0000E-10  1.0000E-10  1.0000E-10  1.0000E-10  1.0000E-10  1.0000E-10  1.0000E-10
   6   8.0000E-10  5.0000E-10  5.0000E-10  2.0000E-10  2.0000E-10  1.0000E-10  1.0000E-10  1.0000E-10  1.0000E-10  5.0000E-10
   7   8.0000E-10  5.0000E-10  5.0000E-10  2.0000E-10  2.0000E-10  1.0000E-10  1.0000E-10  2.0000E-10  2.0000E-10   0.000    
   8    0.000      5.0000E-10  5.0000E-10  2.0000E-10  2.0000E-10  1.0000E-10  1.0000E-10  2.0000E-10  5.0000E-10   0.000    
   9    0.000      5.0000E-10  5.0000E-10  2.0000E-10  2.0000E-10  1.0000E-10  1.0000E-10  2.0000E-10  5.0000E-10   0.000    
  10    0.000      5.0000E-10  5.0000E-10  2.0000E-10  2.0000E-10  1.0000E-10  1.0000E-10  2.0000E-10  5.0000E-10  8.0000E-10
  11    0.000      1.0000E-10  1.0000E-10  1.0000E-10  1.0000E-10  1.0000E-10  1.0000E-10  2.0000E-10  5.0000E-10   0.000    
  12   1.0000E-10  1.0000E-10  1.0000E-10  1.0000E-10  1.0000E-10  1.0000E-10  1.0000E-10  1.0000E-10  2.0000E-10   0.000    
  13   1.0000E-10  1.0000E-10  2.0000E-10  2.0000E-10  2.0000E-10  2.0000E-10  2.0000E-10  1.0000E-10  1.0000E-10   0.000    
  14    0.000      2.0000E-10  5.0000E-10  5.0000E-10  5.0000E-10  5.0000E-10  5.0000E-10  2.0000E-10  1.0000E-10   0.000    
  15    0.000       0.000      8.0000E-10  8.0000E-10  8.0000E-10  8.0000E-10   0.000       0.000       0.000       0.000    

                  ET RATE =  5.000000E-09

 USING ET EXTINCTION DEPTH FROM PREVIOUS STRESS PERIOD. CURRENT PERIOD IS:      11

 USING EXTINCTION WATER CONTENT FROM PREVIOUS STRESS PERIOD. CURRENT PERIOD IS:      11

 USING AIR ENTRY PRESSURE FROM PREVIOUS STRESS PERIOD. CURRENT PERIOD IS:      11

 USING ROOT PRESSURE HEAD FROM PREVIOUS STRESS PERIOD. CURRENT PERIOD IS:      11

 USING ROOT ACTIVITY FROM PREVIOUS STRESS PERIOD. CURRENT PERIOD IS:      11

 PROCESSING AG STRESS PERIOD DATA

 READING AG STRESS PERIOD DATA

 READING IRRIGATION SEGMENT

 READING IRRIGATION WELL

 READING SUPPLEMENTAL WELL

 END PROCESSING AG STRESS PERIOD DATA OPTIONS
 
 SOLVING FOR HEAD 
                                                   Max.-Head-Change                         Max.-Flux-Residual
  Residual-Control   Outer-Iter.   Inner-Iter.     Column Row Layer    Maximum-Head-Change  Column Row Layer    Maximum-Flux-Residual          L2-NORM 
          0                 1           2             4    5     1       0.7117755775E-01       4    5    1         0.3827631880E+01      0.9204132677E+01
          0                 2           2             4    7     1       0.1127113994E-01       4    7    1         0.6007444259E+00      0.1275248356E+01
          0                 3           2             4    7     1       0.3317184399E-02       4    7    1         0.1762509667E+00      0.2793230121E+00
          0                 4           2             4    7     1       0.9766704058E-03       4    7    1         0.5190943078E-01      0.8103251790E-01
          0                 5           2             4    7     1       0.2876617368E-03       4    7    1         0.1528385176E-01      0.2399012534E-01
          0                 6           1             4    7     1       0.8475457038E-04       4    7    1         0.4501982488E-02      0.7107462109E-02

    ------------------------------------------------
       NWT REQUIRED            6 OUTER ITERATIONS 
       AND A TOTAL OF         11 INNER ITERATIONS.
    ------------------------------------------------

 NO OUTPUT CONTROL FOR STRESS PERIOD   11   TIME STEP    1
 
 SOLVING FOR HEAD 
                                                   Max.-Head-Change                         Max.-Flux-Residual
  Residual-Control   Outer-Iter.   Inner-Iter.     Column Row Layer    Maximum-Head-Change  Column Row Layer    Maximum-Flux-Residual          L2-NORM 
          0                 1           2             4    5     1       0.6893888119E-01       4    5    1         0.3705554200E+01      0.8987841005E+01
          0                 2           2             4    7     1       0.1097341503E-01       4    7    1         0.5841848111E+00      0.1260916807E+01
          0                 3           2             4    7     1       0.3234739946E-02       4    7    1         0.1716652566E+00      0.2801397158E+00
          0                 4           2             4    7     1       0.9538644200E-03       4    7    1         0.5063970784E-01      0.8142280014E-01
          0                 5           2             4    7     1       0.2813684311E-03       4    7    1         0.1493272791E-01      0.2411962578E-01
          0                 6           1             4    7     1       0.8302290093E-04       4    7    1         0.4405165687E-02      0.7150742371E-02

    ------------------------------------------------
       NWT REQUIRED            6 OUTER ITERATIONS 
       AND A TOTAL OF         11 INNER ITERATIONS.
    ------------------------------------------------

 NO OUTPUT CONTROL FOR STRESS PERIOD   11   TIME STEP    2
 
 SOLVING FOR HEAD 
                                                   Max.-Head-Change                         Max.-Flux-Residual
  Residual-Control   Outer-Iter.   Inner-Iter.     Column Row Layer    Maximum-Head-Change  Column Row Layer    Maximum-Flux-Residual          L2-NORM 
          0                 1           2             4    5     1       0.6681225638E-01       4    5    1         0.3589616428E+01      0.8788781870E+01
          0                 2           2             4    7     1       0.1070561457E-01       4    7    1         0.5692298397E+00      0.1251880965E+01
          0                 3           2             4    7     1       0.3160989290E-02       4    7    1         0.1675464010E+00      0.2815901300E+00
          0                 4           2             4    7     1       0.9335803339E-03       4    7    1         0.4950555369E-01      0.8196904518E-01
          0                 5           2             4    7     1       0.2757976478E-03       4    7    1         0.1462091506E-01      0.2428755705E-01
          0                 6           1             4    7     1       0.8149541652E-04       4    7    1         0.4319564373E-02      0.7201976376E-02

    ------------------------------------------------
       NWT REQUIRED            6 OUTER ITERATIONS 
       AND A TOTAL OF         11 INNER ITERATIONS.
    ------------------------------------------------

 NO OUTPUT CONTROL FOR STRESS PERIOD   11   TIME STEP    3
 
 SOLVING FOR HEAD 
                                                   Max.-Head-Change                         Max.-Flux-Residual
  Residual-Control   Outer-Iter.   Inner-Iter.     Column Row Layer    Maximum-Head-Change  Column Row Layer    Maximum-Flux-Residual          L2-NORM 
          0                 1           2             4    5     1       0.6479112263E-01       4    5    1         0.3479458109E+01      0.8601301763E+01
          0                 2           2             4    7     1       0.1046363327E-01       4    7    1         0.5557584073E+00      0.1241950041E+01
          0                 3           2             4    7     1       0.3094049891E-02       4    7    1         0.1638204489E+00      0.2827175045E+00
          0                 4           2             4    7     1       0.9150824591E-03       4    7    1         0.4847489830E-01      0.8240823213E-01
          0                 5           2             4    7     1       0.2706919376E-03       4    7    1         0.1433619756E-01      0.2442184367E-01
          0                 6           1             4    7     1       0.8008796189E-04       4    7    1         0.4241003006E-02      0.7242721108E-02

    ------------------------------------------------
       NWT REQUIRED            6 OUTER ITERATIONS 
       AND A TOTAL OF         11 INNER ITERATIONS.
    ------------------------------------------------

 NO OUTPUT CONTROL FOR STRESS PERIOD   11   TIME STEP    4
 
 SOLVING FOR HEAD 
                                                   Max.-Head-Change                         Max.-Flux-Residual
  Residual-Control   Outer-Iter.   Inner-Iter.     Column Row Layer    Maximum-Head-Change  Column Row Layer    Maximum-Flux-Residual          L2-NORM 
          0                 1           2             4    5     1       0.6286960934E-01       4    5    1         0.3374756740E+01      0.8424403754E+01
          0                 2           2             4    7     1       0.1024506059E-01       4    7    1         0.5435963053E+00      0.1232812719E+01
          0                 3           2             4    7     1       0.3033534388E-02       4    7    1         0.1604542892E+00      0.2838009509E+00
          0                 4           2             4    7     1       0.8983443244E-03       4    7    1         0.4754293223E-01      0.8282093390E-01
          0                 5           2             4    7     1       0.2660673268E-03       4    7    1         0.1407850141E-01      0.2454676535E-01
          0                 6           1             4    7     1       0.7881174428E-04       4    7    1         0.4169825002E-02      0.7280291675E-02

    ------------------------------------------------
       NWT REQUIRED            6 OUTER ITERATIONS 
       AND A TOTAL OF         11 INNER ITERATIONS.
    ------------------------------------------------

 NO OUTPUT CONTROL FOR STRESS PERIOD   11   TIME STEP    5
 
 SOLVING FOR HEAD 
                                                   Max.-Head-Change                         Max.-Flux-Residual
  Residual-Control   Outer-Iter.   Inner-Iter.     Column Row Layer    Maximum-Head-Change  Column Row Layer    Maximum-Flux-Residual          L2-NORM 
          0                 1           2             4    5     1       0.6104182097E-01       4    5    1         0.3275188975E+01      0.8257172172E+01
          0                 2           2             4    7     1       0.1004731500E-01       4    7    1         0.5326001402E+00      0.1224293736E+01
          0                 3           2             4    7     1       0.2978727386E-02       4    7    1         0.1574081443E+00      0.2848045524E+00
          0                 4           2             4    7     1       0.8831678474E-03       4    7    1         0.4669863575E-01      0.8319858309E-01
          0                 5           2             4    7     1       0.2618690223E-03       4    7    1         0.1384477618E-01      0.2466016358E-01
          0                 6           1             4    7     1       0.7765162159E-04       4    7    1         0.4105186749E-02      0.7314151036E-02

    ------------------------------------------------
       NWT REQUIRED            6 OUTER ITERATIONS 
       AND A TOTAL OF         11 INNER ITERATIONS.
    ------------------------------------------------

 NO OUTPUT CONTROL FOR STRESS PERIOD   11   TIME STEP    6
 
 SOLVING FOR HEAD 
                                                   Max.-Head-Change                         Max.-Flux-Residual
  Residual-Control   Outer-Iter.   Inner-Iter.     Column Row Layer    Maximum-Head-Change  Column Row Layer    Maximum-Flux-Residual          L2-NORM 
          0                 1           2             4    5     1       0.5930237563E-01       4    5    1         0.3180459002E+01      0.8098807873E+01
          0                 2           2             4    7     1       0.9868121704E-02       4    7    1         0.5226433578E+00      0.1216251106E+01
          0                 3           2             4    7     1       0.2928999744E-02       4    7    1         0.1546469823E+00      0.2857025084E+00
          0                 4           2             4    7     1       0.8693791888E-03       4    7    1         0.4593232289E-01      0.8353563628E-01
          0                 5           2             4    7     1       0.2580490380E-03       4    7    1         0.1363234609E-01      0.2476060651E-01
          0                 6           1             4    7     1       0.7659436332E-04       4    7    1         0.4046349864E-02      0.7343953903E-02

    ------------------------------------------------
       NWT REQUIRED            6 OUTER ITERATIONS 
       AND A TOTAL OF         11 INNER ITERATIONS.
    ------------------------------------------------

 NO OUTPUT CONTROL FOR STRESS PERIOD   11   TIME STEP    7
 
 SOLVING FOR HEAD 
                                                   Max.-Head-Change                         Max.-Flux-Residual
  Residual-Control   Outer-Iter.   Inner-Iter.     Column Row Layer    Maximum-Head-Change  Column Row Layer    Maximum-Flux-Residual          L2-NORM 
          0                 1           2             4    5     1       0.5764649558E-01       4    5    1         0.3090304880E+01      0.7948570777E+01
          0                 2           2             4    7     1       0.9705406298E-02       4    7    1         0.5136105442E+00      0.1208569484E+01
          0                 3           2             4    7     1       0.2883777868E-02       4    7    1         0.1521388585E+00      0.2864782544E+00
          0                 4           2             4    7     1       0.8568199011E-03       4    7    1         0.4523516343E-01      0.8382762542E-01
          0                 5           2             4    7     1       0.2545636532E-03       4    7    1         0.1343877260E-01      0.2484726984E-01
          0                 6           1             4    7     1       0.7562792024E-04       4    7    1         0.3992641658E-02      0.7369519766E-02

    ------------------------------------------------
       NWT REQUIRED            6 OUTER ITERATIONS 
       AND A TOTAL OF         11 INNER ITERATIONS.
    ------------------------------------------------

 NO OUTPUT CONTROL FOR STRESS PERIOD   11   TIME STEP    8
 
 SOLVING FOR HEAD 
                                                   Max.-Head-Change                         Max.-Flux-Residual
  Residual-Control   Outer-Iter.   Inner-Iter.     Column Row Layer    Maximum-Head-Change  Column Row Layer    Maximum-Flux-Residual          L2-NORM 
          0                 1           2             4    5     1       0.5606931016E-01       4    5    1         0.3004459045E+01      0.7805807180E+01
          0                 2           2             4    7     1       0.9557310873E-02       4    7    1         0.5053982947E+00      0.1201154198E+01
          0                 3           2             4    7     1       0.2842548222E-02       4    7    1         0.1498551655E+00      0.2871198171E+00
          0                 4           2             4    7     1       0.8453481794E-03       4    7    1         0.4459925241E-01      0.8407325983E-01
          0                 5           2             4    7     1       0.2513737547E-03       4    7    1         0.1326187350E-01      0.2491968216E-01
          0                 6           1             4    7     1       0.7474151670E-04       4    7    1         0.3943460424E-02      0.7390791059E-02

    ------------------------------------------------
       NWT REQUIRED            6 OUTER ITERATIONS 
       AND A TOTAL OF         11 INNER ITERATIONS.
    ------------------------------------------------

 NO OUTPUT CONTROL FOR STRESS PERIOD   11   TIME STEP    9
 
 SOLVING FOR HEAD 
                                                   Max.-Head-Change                         Max.-Flux-Residual
  Residual-Control   Outer-Iter.   Inner-Iter.     Column Row Layer    Maximum-Head-Change  Column Row Layer    Maximum-Flux-Residual          L2-NORM 
          0                 1           2             4    5     1       0.5456651974E-01       4    5    1         0.2922685717E+01      0.7669919352E+01
          0                 2           2             4    7     1       0.9422248630E-02       4    7    1         0.4979182039E+00      0.1193930928E+01
          0                 3           2             4    7     1       0.2804872997E-02       4    7    1         0.1477714797E+00      0.2876215179E+00
          0                 4           2             4    7     1       0.8348433811E-03       4    7    1         0.4401785409E-01      0.8427154629E-01
          0                 5           2             4    7     1       0.2484461423E-03       4    7    1         0.1309979322E-01      0.2497777454E-01
          0                 6           1             4    7     1       0.7392603039E-04       4    7    1         0.3898295721E-02      0.7407711214E-02

    ------------------------------------------------
       NWT REQUIRED            6 OUTER ITERATIONS 
       AND A TOTAL OF         11 INNER ITERATIONS.
    ------------------------------------------------

 NO OUTPUT CONTROL FOR STRESS PERIOD   11   TIME STEP   10
 
 SOLVING FOR HEAD 
                                                   Max.-Head-Change                         Max.-Flux-Residual
  Residual-Control   Outer-Iter.   Inner-Iter.     Column Row Layer    Maximum-Head-Change  Column Row Layer    Maximum-Flux-Residual          L2-NORM 
          0                 1           2             4    5     1       0.5313396460E-01       4    5    1         0.2844756426E+01      0.7540381811E+01
          0                 2           2             4    7     1       0.9298693164E-02       4    7    1         0.4910851715E+00      0.1186841317E+01
          0                 3           2             4    7     1       0.2770331263E-02       4    7    1         0.1458643123E+00      0.2879811533E+00
          0                 4           2             4    7     1       0.8251895624E-03       4    7    1         0.4348449303E-01      0.8442268761E-01
          0                 5           2             4    7     1       0.2457489219E-03       4    7    1         0.1295074875E-01      0.2502171034E-01
          0                 6           1             4    7     1       0.7317270018E-04       4    7    1         0.3856657229E-02      0.7420392530E-02

    ------------------------------------------------
       NWT REQUIRED            6 OUTER ITERATIONS 
       AND A TOTAL OF         11 INNER ITERATIONS.
    ------------------------------------------------

 NO OUTPUT CONTROL FOR STRESS PERIOD   11   TIME STEP   11
 
 SOLVING FOR HEAD 
                                                   Max.-Head-Change                         Max.-Flux-Residual
  Residual-Control   Outer-Iter.   Inner-Iter.     Column Row Layer    Maximum-Head-Change  Column Row Layer    Maximum-Flux-Residual          L2-NORM 
          0                 1           2             4    5     1       0.5176760966E-01       4    5    1         0.2770449890E+01      0.7416706992E+01
          0                 2           2             4    7     1       0.9185313417E-02       4    7    1         0.4848250969E+00      0.1179836621E+01
          0                 3           2             4    7     1       0.2738555385E-02       4    7    1         0.1441131705E+00      0.2881984397E+00
          0                 4           2             4    7     1       0.8162853054E-03       4    7    1         0.4299351149E-01      0.8452731338E-01
          0                 5           2             4    7     1       0.2432541532E-03       4    7    1         0.1281317982E-01      0.2505175429E-01
          0                 6           1             4    7     1       0.7247384015E-04       4    7    1         0.3818115279E-02      0.7428933976E-02

    ------------------------------------------------
       NWT REQUIRED            6 OUTER ITERATIONS 
       AND A TOTAL OF         11 INNER ITERATIONS.
    ------------------------------------------------

 NO OUTPUT CONTROL FOR STRESS PERIOD   11   TIME STEP   12
 
 SOLVING FOR HEAD 
                                                   Max.-Head-Change                         Max.-Flux-Residual
  Residual-Control   Outer-Iter.   Inner-Iter.     Column Row Layer    Maximum-Head-Change  Column Row Layer    Maximum-Flux-Residual          L2-NORM 
          0                 1           2             4    5     1       0.5046394191E-01       4    5    1         0.2699573138E+01      0.7298446725E+01
          0                 2           2             4    7     1       0.9080886583E-02       4    7    1         0.4790697445E+00      0.1172879804E+01
          0                 3           2             4    7     1       0.2709208574E-02       4    7    1         0.1424992435E+00      0.2882759037E+00
          0                 4           2             4    7     1       0.8080379749E-03       4    7    1         0.4253973026E-01      0.8458677331E-01
          0                 5           2             4    7     1       0.2409363929E-03       4    7    1         0.1268566234E-01      0.2506836429E-01
          0                 6           1             4    7     1       0.7182247396E-04       4    7    1         0.3782278895E-02      0.7433520364E-02

    ------------------------------------------------
       NWT REQUIRED            6 OUTER ITERATIONS 
       AND A TOTAL OF         11 INNER ITERATIONS.
    ------------------------------------------------

 NO OUTPUT CONTROL FOR STRESS PERIOD   11   TIME STEP   13
 
 SOLVING FOR HEAD 
                                                   Max.-Head-Change                         Max.-Flux-Residual
  Residual-Control   Outer-Iter.   Inner-Iter.     Column Row Layer    Maximum-Head-Change  Column Row Layer    Maximum-Flux-Residual          L2-NORM 
          0                 1           2             4    5     1       0.4921939647E-01       4    5    1         0.2631930829E+01      0.7185210694E+01
          0                 2           2             4    7     1       0.8984397247E-02       4    7    1         0.4737623909E+00      0.1165942670E+01
          0                 3           2             4    7     1       0.2682011767E-02       4    7    1         0.1410069174E+00      0.2882173009E+00
          0                 4           2             4    7     1       0.8003709926E-03       4    7    1         0.4211886039E-01      0.8460268127E-01
          0                 5           2             4    7     1       0.2387746646E-03       4    7    1         0.1256701990E-01      0.2507206127E-01
          0                 6           1             4    7     1       0.7121286519E-04       4    7    1         0.3748825946E-02      0.7434249012E-02

    ------------------------------------------------
       NWT REQUIRED            6 OUTER ITERATIONS 
       AND A TOTAL OF         11 INNER ITERATIONS.
    ------------------------------------------------

 NO OUTPUT CONTROL FOR STRESS PERIOD   11   TIME STEP   14
 
 SOLVING FOR HEAD 
                                                   Max.-Head-Change                         Max.-Flux-Residual
  Residual-Control   Outer-Iter.   Inner-Iter.     Column Row Layer    Maximum-Head-Change  Column Row Layer    Maximum-Flux-Residual          L2-NORM 
          0                 1           2             3    7     1       0.4855840625E-01       4    5    1         0.2567354003E+01      0.7076645854E+01
          0                 2           2             4    7     1       0.8894902899E-02       4    7    1         0.4688503916E+00      0.1159006129E+01
          0                 3           2             4    7     1       0.2656705758E-02       4    7    1         0.1396216982E+00      0.2880283180E+00
          0                 4           2             4    7     1       0.7932131976E-03       4    7    1         0.4172691747E-01      0.8457714133E-01
          0                 5           2             4    7     1       0.2367494679E-03       4    7    1         0.1245615913E-01      0.2506349828E-01
          0                 6           1             4    7     1       0.7063968333E-04       4    7    1         0.3717457016E-02      0.7431355325E-02

    ------------------------------------------------
       NWT REQUIRED            6 OUTER ITERATIONS 
       AND A TOTAL OF         11 INNER ITERATIONS.
    ------------------------------------------------

 NO OUTPUT CONTROL FOR STRESS PERIOD   11   TIME STEP   15
 
 SOLVING FOR HEAD 
                                                   Max.-Head-Change                         Max.-Flux-Residual
  Residual-Control   Outer-Iter.   Inner-Iter.     Column Row Layer    Maximum-Head-Change  Column Row Layer    Maximum-Flux-Residual          L2-NORM 
          0                 1           2             3    7     1       0.4817082086E-01       4    5    1         0.2505676956E+01      0.6972418266E+01
          0                 2           2             4    7     1       0.8811491601E-02       4    7    1         0.4642828440E+00      0.1152051654E+01
          0                 3           2             4    7     1       0.2633039602E-02       4    7    1         0.1383295593E+00      0.2877137162E+00
          0                 4           2             4    7     1       0.7864956230E-03       4    7    1         0.4136004331E-01      0.8451191441E-01
          0                 5           2             4    7     1       0.2348418777E-03       4    7    1         0.1235202009E-01      0.2504321768E-01
          0                 6           1             4    7     1       0.7009774160E-04       4    7    1         0.3687881327E-02      0.7425005160E-02

    ------------------------------------------------
       NWT REQUIRED            6 OUTER ITERATIONS 
       AND A TOTAL OF         11 INNER ITERATIONS.
    ------------------------------------------------

 NO OUTPUT CONTROL FOR STRESS PERIOD   11   TIME STEP   16
 
 SOLVING FOR HEAD 
                                                   Max.-Head-Change                         Max.-Flux-Residual
  Residual-Control   Outer-Iter.   Inner-Iter.     Column Row Layer    Maximum-Head-Change  Column Row Layer    Maximum-Flux-Residual          L2-NORM 
          0                 1           2             3    7     1       0.4778725590E-01       4    5    1         0.2446729718E+01      0.6872229879E+01
          0                 2           2             4    7     1       0.8733425364E-02       4    7    1         0.4600184442E+00      0.1145068477E+01
          0                 3           2             4    7     1       0.2610810941E-02       4    7    1         0.1371191602E+00      0.2872798652E+00
          0                 4           2             4    7     1       0.7801628908E-03       4    7    1         0.4101512987E-01      0.8440918993E-01
          0                 5           2             4    7     1       0.2330367706E-03       4    7    1         0.1225375264E-01      0.2501188294E-01
          0                 6           1             4    7     1       0.6958292203E-04       4    7    1         0.3659866894E-02      0.7415430073E-02

    ------------------------------------------------
       NWT REQUIRED            6 OUTER ITERATIONS 
       AND A TOTAL OF         11 INNER ITERATIONS.
    ------------------------------------------------

 NO OUTPUT CONTROL FOR STRESS PERIOD   11   TIME STEP   17
 
 SOLVING FOR HEAD 
                                                   Max.-Head-Change                         Max.-Flux-Residual
  Residual-Control   Outer-Iter.   Inner-Iter.     Column Row Layer    Maximum-Head-Change  Column Row Layer    Maximum-Flux-Residual          L2-NORM 
          0                 1           2             3    7     1       0.4740789119E-01       4    5    1         0.2390374346E+01      0.6775812832E+01
          0                 2           2             4    7     1       0.8660050658E-02       4    7    1         0.4560205571E+00      0.1138050079E+01
          0                 3           2             4    7     1       0.2589841023E-02       4    7    1         0.1359804641E+00      0.2867335293E+00
          0                 4           2             4    7     1       0.7741662130E-03       4    7    1         0.4068943347E-01      0.8427121936E-01
          0                 5           2             4    7     1       0.2313208637E-03       4    7    1         0.1216060841E-01      0.2497017131E-01
          0                 6           1             4    7     1       0.6909161603E-04       4    7    1         0.3633210059E-02      0.7402801513E-02

    ------------------------------------------------
       NWT REQUIRED            6 OUTER ITERATIONS 
       AND A TOTAL OF         11 INNER ITERATIONS.
    ------------------------------------------------

 NO OUTPUT CONTROL FOR STRESS PERIOD   11   TIME STEP   18
 
 SOLVING FOR HEAD 
                                                   Max.-Head-Change                         Max.-Flux-Residual
  Residual-Control   Outer-Iter.   Inner-Iter.     Column Row Layer    Maximum-Head-Change  Column Row Layer    Maximum-Flux-Residual          L2-NORM 
          0                 1           2             3    7     1       0.4703286707E-01       4    5    1         0.2336474406E+01      0.6682915694E+01
          0                 2           2             4    7     1       0.8590747704E-02       4    7    1         0.4522545508E+00      0.1130989205E+01
          0                 3           2             4    7     1       0.2569959527E-02       4    7    1         0.1349039417E+00      0.2860803468E+00
          0                 4           2             4    7     1       0.7684588635E-03       4    7    1         0.4038033651E-01      0.8409988925E-01
          0                 5           2             4    7     1       0.2296813605E-03       4    7    1         0.1207186956E-01      0.2491864575E-01
          0                 6           1             4    7     1       0.6862032791E-04       4    7    1         0.3607714372E-02      0.7387256406E-02

    ------------------------------------------------
       NWT REQUIRED            6 OUTER ITERATIONS 
       AND A TOTAL OF         11 INNER ITERATIONS.
    ------------------------------------------------

 NO OUTPUT CONTROL FOR STRESS PERIOD   11   TIME STEP   19
 
 SOLVING FOR HEAD 
                                                   Max.-Head-Change                         Max.-Flux-Residual
  Residual-Control   Outer-Iter.   Inner-Iter.     Column Row Layer    Maximum-Head-Change  Column Row Layer    Maximum-Flux-Residual          L2-NORM 
          0                 1           2             3    7     1       0.4666252852E-01       4    5    1         0.2284893856E+01      0.6593320854E+01
          0                 2           2             4    7     1       0.8525010610E-02       4    7    1         0.4486919117E+00      0.1123887962E+01
          0                 3           2             4    7     1       0.2551029235E-02       4    7    1         0.1338818392E+00      0.2853283887E+00
          0                 4           2             4    7     1       0.7630037406E-03       4    7    1         0.4008573774E-01      0.8389777280E-01
          0                 5           2             4    7     1       0.2281082676E-03       4    7    1         0.1198696851E-01      0.2485806807E-01
          0                 6           1             4    7     1       0.6816637687E-04       4    7    1         0.3583227110E-02      0.7369050795E-02

    ------------------------------------------------
       NWT REQUIRED            6 OUTER ITERATIONS 
       AND A TOTAL OF         11 INNER ITERATIONS.
    ------------------------------------------------

 NO OUTPUT CONTROL FOR STRESS PERIOD   11   TIME STEP   20
 
 SOLVING FOR HEAD 
                                                   Max.-Head-Change                         Max.-Flux-Residual
  Residual-Control   Outer-Iter.   Inner-Iter.     Column Row Layer    Maximum-Head-Change  Column Row Layer    Maximum-Flux-Residual          L2-NORM 
          0                 1           2             3    7     1       0.4629694099E-01       4    5    1         0.2235512753E+01      0.6506814127E+01
          0                 2           2             4    7     1       0.8462313873E-02       4    7    1         0.4453032652E+00      0.1116741422E+01
          0                 3           2             4    7     1       0.2532905778E-02       4    7    1         0.1329060776E+00      0.2844825809E+00
          0                 4           2             4    7     1       0.7577612436E-03       4    7    1         0.3980341856E-01      0.8366648922E-01
          0                 5           2             4    7     1       0.2265907402E-03       4    7    1         0.1190529693E-01      0.2478891949E-01
          0                 6           1             4    7     1       0.6772679871E-04       4    7    1         0.3559581737E-02      0.7348328064E-02

    ------------------------------------------------
       NWT REQUIRED            6 OUTER ITERATIONS 
       AND A TOTAL OF         11 INNER ITERATIONS.
    ------------------------------------------------

 NO OUTPUT CONTROL FOR STRESS PERIOD   11   TIME STEP   21
 
 SOLVING FOR HEAD 
                                                   Max.-Head-Change                         Max.-Flux-Residual
  Residual-Control   Outer-Iter.   Inner-Iter.     Column Row Layer    Maximum-Head-Change  Column Row Layer    Maximum-Flux-Residual          L2-NORM 
          0                 1           2             3    7     1       0.4593590490E-01       4    5    1         0.2188210588E+01      0.6423211609E+01
          0                 2           2             4    7     1       0.8402304847E-02       4    7    1         0.4420686911E+00      0.1109553483E+01
          0                 3           2             4    7     1       0.2515493776E-02       4    7    1         0.1319712562E+00      0.2835502492E+00
          0                 4           2             4    7     1       0.7527056802E-03       4    7    1         0.3953191955E-01      0.8340833817E-01
          0                 5           2             4    7     1       0.2251218897E-03       4    7    1         0.1182646213E-01      0.2471187877E-01
          0                 6           1             4    7     1       0.6729975623E-04       4    7    1         0.3536673122E-02      0.7325288330E-02

    ------------------------------------------------
       NWT REQUIRED            6 OUTER ITERATIONS 
       AND A TOTAL OF         11 INNER ITERATIONS.
    ------------------------------------------------

 NO OUTPUT CONTROL FOR STRESS PERIOD   11   TIME STEP   22
 
 SOLVING FOR HEAD 
                                                   Max.-Head-Change                         Max.-Flux-Residual
  Residual-Control   Outer-Iter.   Inner-Iter.     Column Row Layer    Maximum-Head-Change  Column Row Layer    Maximum-Flux-Residual          L2-NORM 
          0                 1           2             3    7     1       0.4557944026E-01       4    5    1         0.2142881901E+01      0.6342327814E+01
          0                 2           2             4    7     1       0.8344524206E-02       4    7    1         0.4389624863E+00      0.1102323068E+01
          0                 3           2             4    7     1       0.2498667233E-02       4    7    1         0.1310703161E+00      0.2825365678E+00
          0                 4           2             4    7     1       0.7478025475E-03       4    7    1         0.3926930529E-01      0.8312496798E-01
          0                 5           2             4    7     1       0.2236922863E-03       4    7    1         0.1174993436E-01      0.2462743068E-01
          0                 6           1             4    7     1       0.6688267706E-04       4    7    1         0.3514356517E-02      0.7300121030E-02

    ------------------------------------------------
       NWT REQUIRED            6 OUTER ITERATIONS 
       AND A TOTAL OF         11 INNER ITERATIONS.
    ------------------------------------------------

 NO OUTPUT CONTROL FOR STRESS PERIOD   11   TIME STEP   23
 
 SOLVING FOR HEAD 
                                                   Max.-Head-Change                         Max.-Flux-Residual
  Residual-Control   Outer-Iter.   Inner-Iter.     Column Row Layer    Maximum-Head-Change  Column Row Layer    Maximum-Flux-Residual          L2-NORM 
          0                 1           2             3    7     1       0.4522778737E-01       4    5    1         0.2099426878E+01      0.6264023008E+01
          0                 2           2             4    7     1       0.8288719649E-02       4    7    1         0.4359702261E+00      0.1095057001E+01
          0                 3           2             4    7     1       0.2482359193E-02       4    7    1         0.1301994110E+00      0.2814485114E+00
          0                 4           2             4    7     1       0.7430341914E-03       4    7    1         0.3901455671E-01      0.8281854793E-01
          0                 5           2             4    7     1       0.2222973107E-03       4    7    1         0.1167544546E-01      0.2453621613E-01
          0                 6           1             4    7     1       0.6647436578E-04       4    7    1         0.3492561999E-02      0.7272920316E-02

    ------------------------------------------------
       NWT REQUIRED            6 OUTER ITERATIONS 
       AND A TOTAL OF         11 INNER ITERATIONS.
    ------------------------------------------------

 NO OUTPUT CONTROL FOR STRESS PERIOD   11   TIME STEP   24
 
 SOLVING FOR HEAD 
                                                   Max.-Head-Change                         Max.-Flux-Residual
  Residual-Control   Outer-Iter.   Inner-Iter.     Column Row Layer    Maximum-Head-Change  Column Row Layer    Maximum-Flux-Residual          L2-NORM 
          0                 1           2             3    7     1       0.4488092657E-01       4    5    1         0.2057745072E+01      0.6188131165E+01
          0                 2           2             4    7     1       0.8234589502E-02       4    7    1         0.4330750617E+00      0.1087753848E+01
          0                 3           2             4    7     1       0.2466486707E-02       4    7    1         0.1293539014E+00      0.2802902633E+00
          0                 4           2             4    7     1       0.7383778526E-03       4    7    1         0.3876639884E-01      0.8249040462E-01
          0                 5           2             4    7     1       0.2209307335E-03       4    7    1         0.1160264578E-01      0.2443862296E-01
          0                 6           1             4    7     1       0.6607312076E-04       4    7    1         0.3471193862E-02      0.7243884332E-02

    ------------------------------------------------
       NWT REQUIRED            6 OUTER ITERATIONS 
       AND A TOTAL OF         11 INNER ITERATIONS.
    ------------------------------------------------

 NO OUTPUT CONTROL FOR STRESS PERIOD   11   TIME STEP   25
 
 SOLVING FOR HEAD 
                                                   Max.-Head-Change                         Max.-Flux-Residual
  Residual-Control   Outer-Iter.   Inner-Iter.     Column Row Layer    Maximum-Head-Change  Column Row Layer    Maximum-Flux-Residual          L2-NORM 
          0                 1           2             3    7     1       0.4453881783E-01       4    5    1         0.2017741344E+01      0.6114531051E+01
          0                 2           2             4    7     1       0.8181841498E-02       4    7    1         0.4302603509E+00      0.1080423364E+01
          0                 3           2             4    7     1       0.2450971652E-02       4    7    1         0.1285293246E+00      0.2790690895E+00
          0                 4           2             4    7     1       0.7338127560E-03       4    7    1         0.3852364029E-01      0.8214276502E-01
          0                 5           2             4    7     1       0.2195870625E-03       4    7    1         0.1153121894E-01      0.2433530634E-01
          0                 6           1             4    7     1       0.6567749999E-04       4    7    1         0.3450168628E-02      0.7213176060E-02

    ------------------------------------------------
       NWT REQUIRED            6 OUTER ITERATIONS 
       AND A TOTAL OF         11 INNER ITERATIONS.
    ------------------------------------------------

 NO OUTPUT CONTROL FOR STRESS PERIOD   11   TIME STEP   26
 
 SOLVING FOR HEAD 
                                                   Max.-Head-Change                         Max.-Flux-Residual
  Residual-Control   Outer-Iter.   Inner-Iter.     Column Row Layer    Maximum-Head-Change  Column Row Layer    Maximum-Flux-Residual          L2-NORM 
          0                 1           2             3    7     1       0.4420116874E-01       4    5    1         0.1979341038E+01      0.6043097593E+01
          0                 2           2             4    7     1       0.8130285898E-02       4    7    1         0.4275154038E+00      0.1073065294E+01
          0                 3           2             4    7     1       0.2435762470E-02       4    7    1         0.1277227717E+00      0.2777884447E+00
          0                 4           2             4    7     1       0.7293249342E-03       4    7    1         0.3828549103E-01      0.8177672182E-01
          0                 5           2             4    7     1       0.2182625287E-03       4    7    1         0.1146095118E-01      0.2422658609E-01
          0                 6           1             4    7     1       0.6528649177E-04       4    7    1         0.3429428688E-02      0.7180837379E-02

    ------------------------------------------------
       NWT REQUIRED            6 OUTER ITERATIONS 
       AND A TOTAL OF         11 INNER ITERATIONS.
    ------------------------------------------------

 NO OUTPUT CONTROL FOR STRESS PERIOD   11   TIME STEP   27
 
 SOLVING FOR HEAD 
                                                   Max.-Head-Change                         Max.-Flux-Residual
  Residual-Control   Outer-Iter.   Inner-Iter.     Column Row Layer    Maximum-Head-Change  Column Row Layer    Maximum-Flux-Residual          L2-NORM 
          0                 1           2             3    7     1       0.4386840660E-01       4    5    1         0.1942452214E+01      0.5973708315E+01
          0                 2           2             4    7     1       0.8079723709E-02       4    7    1         0.4248289451E+00      0.1065685104E+01
          0                 3           2             4    7     1       0.2420805682E-02       4    7    1         0.1269311991E+00      0.2764537042E+00
          0                 4           2             4    7     1       0.7249000899E-03       4    7    1         0.3805113439E-01      0.8139392581E-01
          0                 5           2             4    7     1       0.2169533316E-03       4    7    1         0.1139162440E-01      0.2411294628E-01
          0                 6           1             4    7     1       0.6489909115E-04       4    7    1         0.3408916127E-02      0.7147054750E-02

    ------------------------------------------------
       NWT REQUIRED            6 OUTER ITERATIONS 
       AND A TOTAL OF         11 INNER ITERATIONS.
    ------------------------------------------------

 NO OUTPUT CONTROL FOR STRESS PERIOD   11   TIME STEP   28
 
 SOLVING FOR HEAD 
                                                   Max.-Head-Change                         Max.-Flux-Residual
  Residual-Control   Outer-Iter.   Inner-Iter.     Column Row Layer    Maximum-Head-Change  Column Row Layer    Maximum-Flux-Residual          L2-NORM 
          0                 1           2             3    7     1       0.4354021198E-01       4    5    1         0.1906995237E+01      0.5906258032E+01
          0                 2           2             4    7     1       0.8029966912E-02       4    7    1         0.4221912604E+00      0.1058294660E+01
          0                 3           2             4    7     1       0.2406051424E-02       4    7    1         0.1261516681E+00      0.2750697599E+00
          0                 4           2             4    7     1       0.7205250729E-03       4    7    1         0.3781981450E-01      0.8099584774E-01
          0                 5           2             4    7     1       0.2156560277E-03       4    7    1         0.1132303884E-01      0.2399481854E-01
          0                 6           1             4    7     1       0.6451440560E-04       4    7    1         0.3388578776E-02      0.7111955064E-02

    ------------------------------------------------
       NWT REQUIRED            6 OUTER ITERATIONS 
       AND A TOTAL OF         11 INNER ITERATIONS.
    ------------------------------------------------

 NO OUTPUT CONTROL FOR STRESS PERIOD   11   TIME STEP   29
 
 SOLVING FOR HEAD 
                                                   Max.-Head-Change                         Max.-Flux-Residual
  Residual-Control   Outer-Iter.   Inner-Iter.     Column Row Layer    Maximum-Head-Change  Column Row Layer    Maximum-Flux-Residual          L2-NORM 
          0                 1           2             3    7     1       0.4319980600E-01       4    5    1         0.1872910054E+01      0.5840645746E+01
          0                 2           2             4    7     1       0.7980895324E-02       4    7    1         0.4195919376E+00      0.1050897030E+01
          0                 3           2             4    7     1       0.2391467453E-02       4    7    1         0.1253825926E+00      0.2736410351E+00
          0                 4           2             4    7     1       0.7161912964E-03       4    7    1         0.3759102887E-01      0.8058384530E-01
          0                 5           2             4    7     1       0.2143683485E-03       4    7    1         0.1125506374E-01      0.2387260008E-01
          0                 6           1             4    7     1       0.6413184113E-04       4    7    1         0.3368382156E-02      0.7075654781E-02

    ------------------------------------------------
       NWT REQUIRED            6 OUTER ITERATIONS 
       AND A TOTAL OF         11 INNER ITERATIONS.
    ------------------------------------------------

 NO OUTPUT CONTROL FOR STRESS PERIOD   11   TIME STEP   30



 STREAM LISTING     PERIOD     11   STEP       30

 LAYER ROW COL. STREAM  RCH.  FLOW INTO     FLOW TO   FLOW OUT OF   OVRLND.     DIRECT     STREAM       STREAM     STREAM     STREAM   STREAMBED  STREAMBED
                SEG.NO.  NO.  STRM. RCH.    AQUIFER    STRM. RCH.    RUNOFF     PRECIP       ET          HEAD       DEPTH      WIDTH   CONDCTNC.   GRADIENT

   1    1    1     1     1    1.3125E+01  1.7336E-01   1.2952E+01  0.000E+00  0.000E+00  0.000E+00  1.09402E+03  9.718E-01  9.699E+00  4.365E-02  1.324E+00
   1    2    2     1     2    1.2952E+01  2.6707E-01   1.2684E+01  0.000E+00  0.000E+00  0.000E+00  1.08903E+03  9.671E-01  9.617E+00  6.732E-02  1.322E+00
   1    3    3     1     3    1.2684E+01  2.2641E-01   1.2458E+01  0.000E+00  0.000E+00  0.000E+00  1.08338E+03  9.616E-01  9.525E+00  5.715E-02  1.321E+00
   1    3    4     1     4    1.2458E+01  2.0737E-01   1.2251E+01  0.000E+00  0.000E+00  0.000E+00  1.07836E+03  9.568E-01  9.443E+00  5.241E-02  1.319E+00
   1    4    5     2     1    1.0251E+01  2.8870E-01   9.9620E+00  0.000E+00  0.000E+00  0.000E+00  1.07264E+03  7.013E-01  1.200E+01  7.800E-02  1.234E+00
   1    5    6     2     2    9.9620E+00  2.2144E-01   9.7406E+00  0.000E+00  0.000E+00  0.000E+00  1.06720E+03  6.906E-01  1.200E+01  6.000E-02  1.230E+00
   1    6    6     2     3    9.7406E+00  2.2088E-01   9.5197E+00  0.000E+00  0.000E+00  0.000E+00  1.06247E+03  6.813E-01  1.200E+01  6.000E-02  1.227E+00
   1    7    6     2     4    9.5197E+00  2.2031E-01   9.2994E+00  0.000E+00  0.000E+00  0.000E+00  1.05775E+03  6.719E-01  1.200E+01  6.000E-02  1.224E+00
   1    8    6     2     5    9.2994E+00  2.1974E-01   9.0796E+00  0.000E+00  0.000E+00  0.000E+00  1.05302E+03  6.624E-01  1.200E+01  6.000E-02  1.221E+00
   1    3    5     3     1    2.0000E+00  2.8252E-01   1.7175E+00  0.000E+00  0.000E+00  0.000E+00  1.07555E+03  1.909E+00  9.636E+00  7.227E-02  1.955E+00
   1    3    6     3     2    1.7175E+00  2.4905E-01   1.4684E+00  0.000E+00  0.000E+00  0.000E+00  1.07264E+03  1.727E+00  8.909E+00  6.682E-02  1.864E+00
   1    3    7     3     3    1.4684E+00  1.9718E-01   1.2712E+00  0.000E+00  0.000E+00  0.000E+00  1.06987E+03  1.555E+00  8.218E+00  5.547E-02  1.777E+00
   1    4    8     3     4    1.2712E+00  2.2567E-01   1.0456E+00  0.000E+00  0.000E+00  0.000E+00  1.06682E+03  1.364E+00  7.455E+00  6.709E-02  1.682E+00
   1    5    8     3     5    1.0456E+00  1.5790E-01   8.8768E-01  0.000E+00  0.000E+00  0.000E+00  1.06362E+03  1.164E+00  6.655E+00  4.991E-02  1.582E+00
   1    6    8     3     6    8.8768E-01  5.5980E-02   8.3170E-01  0.000E+00  0.000E+00  0.000E+00  1.06158E+03  1.036E+00  6.145E+00  1.844E-02  1.518E+00
   1    5   10     4     1    1.0000E+01  9.0919E-02   9.9091E+00  0.000E+00  0.000E+00  0.000E+00  1.07836E+03  6.368E-01  1.000E+01  2.500E-02  1.212E+00
   1    5    9     4     2    9.9091E+00  1.8158E-01   9.7275E+00  0.000E+00  0.000E+00  0.000E+00  1.07154E+03  6.315E-01  1.000E+01  5.000E-02  1.211E+00
   1    6    8     4     3    9.7275E+00  1.2689E-01   9.6006E+00  0.000E+00  0.000E+00  0.000E+00  1.06381E+03  6.256E-01  1.000E+01  3.500E-02  1.209E+00
   1    6    8     5     1    1.0432E+01  2.2686E-01   1.0205E+01  0.000E+00  0.000E+00  0.000E+00  1.05868E+03  6.790E-01  1.542E+01  6.166E-02  1.226E+00
   1    7    7     5     2    1.0205E+01  2.7894E-01   9.9265E+00  0.000E+00  0.000E+00  0.000E+00  1.05417E+03  6.732E-01  1.519E+01  7.594E-02  1.224E+00
   1    8    7     5     3    9.9265E+00  1.9221E-01   9.7343E+00  0.000E+00  0.000E+00  0.000E+00  1.04992E+03  6.676E-01  1.497E+01  5.241E-02  1.223E+00
   1    8    6     5     4    9.7343E+00  1.3577E-01   9.5985E+00  0.000E+00  0.000E+00  0.000E+00  1.04691E+03  6.637E-01  1.482E+01  3.706E-02  1.221E+00
   1    9    6     6     1    1.8678E+01  2.4127E-01   1.8437E+01  0.000E+00  0.000E+00  0.000E+00  1.04375E+03  1.021E+00  1.200E+01  6.000E-02  1.340E+00
   1   10    7     6     2    1.8437E+01  2.4079E-01   1.8196E+01  0.000E+00  0.000E+00  0.000E+00  1.03919E+03  1.013E+00  1.200E+01  6.000E-02  1.338E+00
   1   11    7     6     3    1.8196E+01  2.4031E-01   1.7956E+01  0.000E+00  0.000E+00  0.000E+00  1.03464E+03  1.005E+00  1.200E+01  6.000E-02  1.335E+00
   1   12    7     6     4    1.7956E+01  2.3983E-01   1.7716E+01  0.000E+00  0.000E+00  0.000E+00  1.03009E+03  9.971E-01  1.200E+01  6.000E-02  1.332E+00
   1   13    7     6     5    1.7716E+01  2.6011E-03   1.7713E+01  0.000E+00  0.000E+00  0.000E+00  1.02690E+03  9.930E-01  1.200E+01  2.400E-02  3.613E-02
   1   14    9     7     1    1.5000E+02  1.3695E+00   1.4863E+02  0.000E+00  0.000E+00  0.000E+00  1.03987E+03  2.288E+00  5.529E+01  5.593E-01  8.162E-01
   1   13    8     7     2    1.4863E+02  1.9262E+00   1.4670E+02  0.000E+00  0.000E+00  0.000E+00  1.03478E+03  2.279E+00  5.525E+01  6.148E-01  1.044E+00
   1   13    7     7     3    1.4670E+02  1.6166E+00   1.4509E+02  0.000E+00  0.000E+00  0.000E+00  1.02969E+03  2.269E+00  5.521E+01  5.584E-01  9.650E-01
   1   13    6     8     1    1.6280E+02  1.0312E+00   1.6177E+02  0.000E+00  0.000E+00  0.000E+00  1.02478E+03  2.901E+00  4.207E+01  4.287E-01  8.018E-01
   1   13    5     8     2    1.6177E+02  2.9278E-01   1.6148E+02  0.000E+00  0.000E+00  0.000E+00  1.01852E+03  2.897E+00  4.200E+01  4.280E-01  2.280E-01
   1   13    4     8     3    1.6148E+02 -2.0010E+00   1.6348E+02  0.000E+00  0.000E+00  0.000E+00  1.01228E+03  2.903E+00  4.209E+01  4.289E+00 -1.555E-01
   1   13    3     8     4    1.6348E+02 -3.4540E+00   1.6693E+02  0.000E+00  0.000E+00  0.000E+00  1.00605E+03  2.921E+00  4.235E+01  4.316E+00 -2.668E-01
   1   13    2     8     5    1.6693E+02 -2.5205E+00   1.6945E+02  0.000E+00  0.000E+00  0.000E+00  9.99815E+02  2.940E+00  4.264E+01  4.345E+00 -1.934E-01
   1   13    1     8     6    1.6945E+02 -1.9481E+00   1.7140E+02  0.000E+00  0.000E+00  0.000E+00  9.94830E+02  2.955E+00  4.285E+01  2.620E+00 -2.479E-01
   1    8    6     9     1    0.0000E+00  0.0000E+00   0.0000E+00  0.000E+00  0.000E+00  0.000E+00  1.07875E+03  0.000E+00  4.000E+00  0.000E+00  1.000E+00
   1    8    5     9     2    0.0000E+00  0.0000E+00   0.0000E+00  0.000E+00  0.000E+00  0.000E+00  1.07825E+03  0.000E+00  4.000E+00  0.000E+00  1.000E+00





UNSATURATED ZONE PACKAGE VOLUMETRIC BUDGET FOR  TIME STEP    30 STRESS PERIOD   11
  ------------------------------------------------------------------------------



     CUMULATIVE VOLUMES      L**3       RATES FOR THIS TIME STEP      L**3/T
     ------------------                 ------------------------

           IN:                                      IN:
           ---                                      ---
        INFILTRATION =  1930192972.1071          INFILTRATION =           0.8475

          OUT:                                     OUT:
          ----                                     ----
              UZF ET =   428347991.7294                UZF ET =           0.8475
        UZF RECHARGE =   995848914.7812          UZF RECHARGE =          12.6132

            IN - OUT =   505996065.5964              IN - OUT =         -12.6132

          STORAGE:                                 STORAGE:
          --------                                 --------
      STORAGE CHANGE =   505996457.9026        STORAGE CHANGE =         -12.6132

 PERCENT DISCREPANCY IS DIFFERENCE BETWEEN IN-OUT MINUS CHANGE IN STORAGE
 DIVIDED BY THE AVERAGE OF IN AND OUT TIMES 100

 PERCENT DISCREPANCY =          -0.00     PERCENT DISCREPANCY =          -0.00






1
  VOLUMETRIC BUDGET FOR AGRICULTURAL FIELDS AT  END OF TIME STEP   30, STRESS PERIOD  11
  ------------------------------------------------------------------------------

     CUMULATIVE VOLUMES      L**3       RATES FOR THIS TIME STEP      L**3/T
     ------------------                 ------------------------

           IN:                                      IN:
           ---                                      ---
               AG WELLS  =  1630378752.0000                 AG WELLS  =           0.0000
      DIVERSION SEGMENTS =   277447584.0000        DIVERSION SEGMENTS =           0.0000
           GW IRRIGATION =           0.0000             GW IRRIGATION =           0.0000
           SW IRRIGATION =           0.0000             SW IRRIGATION =           0.0000
        SYSTEM LOSSES GW =           0.0000          SYSTEM LOSSES GW =           0.0000
        SYSTEM LOSSES SW =           0.0000          SYSTEM LOSSES SW =           0.0000

                TOTAL IN =  1907826304.0000                  TOTAL IN =           0.0000

          OUT:                                     OUT:
          ----                                     ----
               AG WELLS  =           0.0000                 AG WELLS  =           0.0000
      DIVERSION SEGMENTS =           0.0000        DIVERSION SEGMENTS =           0.0000
           GW IRRIGATION =  1630378752.0000             GW IRRIGATION =           0.0000
           SW IRRIGATION =   277452768.0000             SW IRRIGATION =           0.0000
        SYSTEM LOSSES GW =           0.0000          SYSTEM LOSSES GW =           0.0000
        SYSTEM LOSSES SW =           0.0000          SYSTEM LOSSES SW =           0.0000

               TOTAL OUT =  1907831552.0000                 TOTAL OUT =           0.0000

                IN - OUT =       -5248.0000                  IN - OUT =           0.0000

     PERCENT DISCREPANCY =          -0.00         PERCENT DISCREPANCY =           0.00



1
  VOLUMETRIC BUDGET FOR ENTIRE MODEL AT END OF TIME STEP   30, STRESS PERIOD  11
  ------------------------------------------------------------------------------

     CUMULATIVE VOLUMES      L**3       RATES FOR THIS TIME STEP      L**3/T
     ------------------                 ------------------------

           IN:                                      IN:
           ---                                      ---
             STORAGE     =  1838107264.0000               STORAGE     =          12.9910
       CONSTANT HEAD     =           0.0000         CONSTANT HEAD     =           0.0000
     HEAD DEP BOUNDS     =     7597226.0000       HEAD DEP BOUNDS     =           0.2881
      STREAM LEAKAGE     =   311226048.0000        STREAM LEAKAGE     =          11.6478
        UZF RECHARGE     =   995848896.0000          UZF RECHARGE     =          12.6132
               GW ET     =           0.0000                 GW ET     =           0.0000
     SURFACE LEAKAGE     =           0.0000       SURFACE LEAKAGE     =           0.0000
           AG WELLS      =           0.0000             AG WELLS      =           0.0000

                TOTAL IN =  3152779520.0000                  TOTAL IN =          37.5400

          OUT:                                     OUT:
          ----                                     ----
             STORAGE     =  1242904064.0000               STORAGE     =          27.3234
       CONSTANT HEAD     =           0.0000         CONSTANT HEAD     =           0.0000
     HEAD DEP BOUNDS     =     7589404.0000       HEAD DEP BOUNDS     =           0.2878
      STREAM LEAKAGE     =   271893824.0000        STREAM LEAKAGE     =           9.9236
        UZF RECHARGE     =           0.0000          UZF RECHARGE     =           0.0000
               GW ET     =           0.0000                 GW ET     =           0.0000
     SURFACE LEAKAGE     =           0.0000       SURFACE LEAKAGE     =           0.0000
           AG WELLS      =  1630378752.0000             AG WELLS      =           0.0000

               TOTAL OUT =  3152765952.0000                 TOTAL OUT =          37.5348

                IN - OUT =       13568.0000                  IN - OUT =       5.1308E-03

     PERCENT DISCREPANCY =           0.00         PERCENT DISCREPANCY =           0.01






         TIME SUMMARY AT END OF TIME STEP   30 IN STRESS PERIOD   11
                    SECONDS     MINUTES      HOURS       DAYS        YEARS
                    -----------------------------------------------------------
   TIME STEP LENGTH  87667.      1461.1      24.352      1.0147     2.77799E-03
 STRESS PERIOD TIME 2.63000E+06  43833.      730.56      30.440     8.33397E-02
         TOTAL TIME 2.63864E+07 4.39773E+05  7329.5      305.40     0.83613    
1
1
                            STRESS PERIOD NO.   12, LENGTH =   2630000.    
                            -----------------------------------------------

                              NUMBER OF TIME STEPS =    30

                               MULTIPLIER FOR DELT =     1.000

                            INITIAL TIME STEP SIZE =   87666.66    

 REUSING NON-PARAMETER GHB CELLS FROM LAST STRESS PERIOD

      2 GHB CELLS

 REUSING STREAM SEGMENT DATA FROM LAST STRESS PERIOD



            AREAL INFILTRATION RATE
 READING ON UNIT   19 WITH FORMAT: (FREE)              

            1           2           3           4           5           6           7           8           9          10
 ........................................................................................................................
   1   1.0000E-10  2.0000E-10   0.000       0.000       0.000       0.000       0.000       0.000       0.000       0.000    
   2   2.0000E-10  1.0000E-10  2.0000E-10   0.000       0.000      8.0000E-10  8.0000E-10  5.0000E-10   0.000       0.000    
   3    0.000      5.0000E-10  1.0000E-10  1.0000E-10  8.0000E-10  8.0000E-10  5.0000E-10  5.0000E-10   0.000       0.000    
   4   8.0000E-10  5.0000E-10  1.0000E-10  1.0000E-10  1.0000E-10  1.0000E-10  1.0000E-10  1.0000E-10  2.0000E-10   0.000    
   5   8.0000E-10  5.0000E-10  1.0000E-10  1.0000E-10  1.0000E-10  1.0000E-10  1.0000E-10  1.0000E-10  1.0000E-10  1.0000E-10
   6   8.0000E-10  5.0000E-10  5.0000E-10  2.0000E-10  2.0000E-10  1.0000E-10  1.0000E-10  1.0000E-10  1.0000E-10  5.0000E-10
   7   8.0000E-10  5.0000E-10  5.0000E-10  2.0000E-10  2.0000E-10  1.0000E-10  1.0000E-10  2.0000E-10  2.0000E-10   0.000    
   8    0.000      5.0000E-10  5.0000E-10  2.0000E-10  2.0000E-10  1.0000E-10  1.0000E-10  2.0000E-10  5.0000E-10   0.000    
   9    0.000      5.0000E-10  5.0000E-10  2.0000E-10  2.0000E-10  1.0000E-10  1.0000E-10  2.0000E-10  5.0000E-10   0.000    
  10    0.000      5.0000E-10  5.0000E-10  2.0000E-10  2.0000E-10  1.0000E-10  1.0000E-10  2.0000E-10  5.0000E-10  8.0000E-10
  11    0.000      1.0000E-10  1.0000E-10  1.0000E-10  1.0000E-10  1.0000E-10  1.0000E-10  2.0000E-10  5.0000E-10   0.000    
  12   1.0000E-10  1.0000E-10  1.0000E-10  1.0000E-10  1.0000E-10  1.0000E-10  1.0000E-10  1.0000E-10  2.0000E-10   0.000    
  13   1.0000E-10  1.0000E-10  2.0000E-10  2.0000E-10  2.0000E-10  2.0000E-10  2.0000E-10  1.0000E-10  1.0000E-10   0.000    
  14    0.000      2.0000E-10  5.0000E-10  5.0000E-10  5.0000E-10  5.0000E-10  5.0000E-10  2.0000E-10  1.0000E-10   0.000    
  15    0.000       0.000      8.0000E-10  8.0000E-10  8.0000E-10  8.0000E-10   0.000       0.000       0.000       0.000    

                  ET RATE =  5.000000E-10

 USING ET EXTINCTION DEPTH FROM PREVIOUS STRESS PERIOD. CURRENT PERIOD IS:      12

 USING EXTINCTION WATER CONTENT FROM PREVIOUS STRESS PERIOD. CURRENT PERIOD IS:      12

 USING AIR ENTRY PRESSURE FROM PREVIOUS STRESS PERIOD. CURRENT PERIOD IS:      12

 USING ROOT PRESSURE HEAD FROM PREVIOUS STRESS PERIOD. CURRENT PERIOD IS:      12

 USING ROOT ACTIVITY FROM PREVIOUS STRESS PERIOD. CURRENT PERIOD IS:      12

 PROCESSING AG STRESS PERIOD DATA

 READING AG STRESS PERIOD DATA

 READING IRRIGATION SEGMENT

 READING IRRIGATION WELL

 READING SUPPLEMENTAL WELL

 END PROCESSING AG STRESS PERIOD DATA OPTIONS
 
 SOLVING FOR HEAD 
                                                   Max.-Head-Change                         Max.-Flux-Residual
  Residual-Control   Outer-Iter.   Inner-Iter.     Column Row Layer    Maximum-Head-Change  Column Row Layer    Maximum-Flux-Residual          L2-NORM 
          0                 1           2             3    7     1       0.4286878341E-01       4    5    1         0.1840125270E+01      0.5777646072E+01
          0                 2           2             4    7     1       0.7932359079E-02       4    7    1         0.4170266357E+00      0.1043460687E+01
          0                 3           2             4    7     1       0.2377010179E-02       4    7    1         0.1246213764E+00      0.2721616691E+00
          0                 4           2             4    7     1       0.7118860335E-03       4    7    1         0.3736410801E-01      0.8015596902E-01
          0                 5           2             4    7     1       0.2130865663E-03       4    7    1         0.1118750026E-01      0.2374572843E-01
          0                 6           1             4    7     1       0.6375030361E-04       4    7    1         0.3348268000E-02      0.7037988008E-02

    ------------------------------------------------
       NWT REQUIRED            6 OUTER ITERATIONS 
       AND A TOTAL OF         11 INNER ITERATIONS.
    ------------------------------------------------

 NO OUTPUT CONTROL FOR STRESS PERIOD   12   TIME STEP    1
 
 SOLVING FOR HEAD 
                                                   Max.-Head-Change                         Max.-Flux-Residual
  Residual-Control   Outer-Iter.   Inner-Iter.     Column Row Layer    Maximum-Head-Change  Column Row Layer    Maximum-Flux-Residual          L2-NORM 
          0                 1           2             3    7     1       0.4254263355E-01       4    5    1         0.1808557889E+01      0.5715782402E+01
          0                 2           2             4    7     1       0.7884187212E-02       4    7    1         0.4144841918E+00      0.1036018254E+01
          0                 3           2             4    7     1       0.2362635868E-02       4    7    1         0.1238655166E+00      0.2706421005E+00
          0                 4           2             4    7     1       0.7075983007E-03       4    7    1         0.3713839020E-01      0.7971584342E-01
          0                 5           2             4    7     1       0.2118079894E-03       4    7    1         0.1112018399E-01      0.2361524762E-01
          0                 6           1             4    7     1       0.6336915402E-04       4    7    1         0.3328196308E-02      0.6999261415E-02

    ------------------------------------------------
       NWT REQUIRED            6 OUTER ITERATIONS 
       AND A TOTAL OF         11 INNER ITERATIONS.
    ------------------------------------------------

 NO OUTPUT CONTROL FOR STRESS PERIOD   12   TIME STEP    2
 
 SOLVING FOR HEAD 
                                                   Max.-Head-Change                         Max.-Flux-Residual
  Residual-Control   Outer-Iter.   Inner-Iter.     Column Row Layer    Maximum-Head-Change  Column Row Layer    Maximum-Flux-Residual          L2-NORM 
          0                 1           2             3    7     1       0.4222100276E-01       4    5    1         0.1778158642E+01      0.5654982007E+01
          0                 2           2             4    7     1       0.7836371825E-02       4    7    1         0.4119636917E+00      0.1028576777E+01
          0                 3           2             4    7     1       0.2348345699E-02       4    7    1         0.1231149388E+00      0.2690894940E+00
          0                 4           2             4    7     1       0.7033294401E-03       4    7    1         0.3691390764E-01      0.7926547785E-01
          0                 5           2             4    7     1       0.2105332953E-03       4    7    1         0.1105313984E-01      0.2348175790E-01
          0                 6           1             4    7     1       0.6298867297E-04       4    7    1         0.3308178794E-02      0.6959651024E-02

    ------------------------------------------------
       NWT REQUIRED            6 OUTER ITERATIONS 
       AND A TOTAL OF         11 INNER ITERATIONS.
    ------------------------------------------------

 NO OUTPUT CONTROL FOR STRESS PERIOD   12   TIME STEP    3
 
 SOLVING FOR HEAD 
                                                   Max.-Head-Change                         Max.-Flux-Residual
  Residual-Control   Outer-Iter.   Inner-Iter.     Column Row Layer    Maximum-Head-Change  Column Row Layer    Maximum-Flux-Residual          L2-NORM 
          0                 1           2             3    7     1       0.4190426040E-01       4    5    1         0.1748861127E+01      0.5595676550E+01
          0                 2           2             4    7     1       0.7788796642E-02       4    7    1         0.4094584959E+00      0.1021034033E+01
          0                 3           2             4    7     1       0.2334108817E-02       4    7    1         0.1223678699E+00      0.2675060408E+00
          0                 4           2             4    7     1       0.6990713227E-03       4    7    1         0.3669019079E-01      0.7880605156E-01
          0                 5           2             4    7     1       0.2092603607E-03       4    7    1         0.1098624437E-01      0.2334560533E-01
          0                 6           1             4    7     1       0.6260831222E-04       4    7    1         0.3288183304E-02      0.6919259845E-02

    ------------------------------------------------
       NWT REQUIRED            6 OUTER ITERATIONS 
       AND A TOTAL OF         11 INNER ITERATIONS.
    ------------------------------------------------

 NO OUTPUT CONTROL FOR STRESS PERIOD   12   TIME STEP    4
 
 SOLVING FOR HEAD 
                                                   Max.-Head-Change                         Max.-Flux-Residual
  Residual-Control   Outer-Iter.   Inner-Iter.     Column Row Layer    Maximum-Head-Change  Column Row Layer    Maximum-Flux-Residual          L2-NORM 
          0                 1           2             3    7     1       0.4159227974E-01       4    5    1         0.1720617324E+01      0.5537872656E+01
          0                 2           2             4    7     1       0.7741397650E-02       4    7    1         0.4069650150E+00      0.1013631319E+01
          0                 3           2             4    7     1       0.2319907708E-02       4    7    1         0.1216233265E+00      0.2658975769E+00
          0                 4           2             4    7     1       0.6948191721E-03       4    7    1         0.3646697080E-01      0.7833814007E-01
          0                 5           2             4    7     1       0.2079878885E-03       4    7    1         0.1091942433E-01      0.2320695156E-01
          0                 6           1             4    7     1       0.6222771975E-04       4    7    1         0.3268189961E-02      0.6878133362E-02

    ------------------------------------------------
       NWT REQUIRED            6 OUTER ITERATIONS 
       AND A TOTAL OF         11 INNER ITERATIONS.
    ------------------------------------------------

 NO OUTPUT CONTROL FOR STRESS PERIOD   12   TIME STEP    5
 
 SOLVING FOR HEAD 
                                                   Max.-Head-Change                         Max.-Flux-Residual
  Residual-Control   Outer-Iter.   Inner-Iter.     Column Row Layer    Maximum-Head-Change  Column Row Layer    Maximum-Flux-Residual          L2-NORM 
          0                 1           2             3    7     1       0.4128445789E-01       4    5    1         0.1693381805E+01      0.5481567750E+01
          0                 2           2             4    7     1       0.7694163347E-02       4    7    1         0.4044821874E+00      0.1006229721E+01
          0                 3           2             4    7     1       0.2305742088E-02       4    7    1         0.1208811735E+00      0.2642660285E+00
          0                 4           2             4    7     1       0.6905737693E-03       4    7    1         0.3624425531E-01      0.7786305458E-01
          0                 5           2             4    7     1       0.2067163496E-03       4    7    1         0.1085269532E-01      0.2306618910E-01
          0                 6           1             4    7     1       0.6184710251E-04       4    7    1         0.3248207077E-02      0.6836387799E-02

    ------------------------------------------------
       NWT REQUIRED            6 OUTER ITERATIONS 
       AND A TOTAL OF         11 INNER ITERATIONS.
    ------------------------------------------------

 NO OUTPUT CONTROL FOR STRESS PERIOD   12   TIME STEP    6
 
 SOLVING FOR HEAD 
                                                   Max.-Head-Change                         Max.-Flux-Residual
  Residual-Control   Outer-Iter.   Inner-Iter.     Column Row Layer    Maximum-Head-Change  Column Row Layer    Maximum-Flux-Residual          L2-NORM 
          0                 1           2             3    7     1       0.4098116143E-01       4    5    1         0.1667097219E+01      0.5426616277E+01
          0                 2           2             4    7     1       0.7647008461E-02       4    7    1         0.4020052703E+00      0.9988279975E+00
          0                 3           2             4    7     1       0.2291588473E-02       4    7    1         0.1201400975E+00      0.2626140799E+00
          0                 4           2             4    7     1       0.6863286767E-03       4    7    1         0.3602168335E-01      0.7738160264E-01
          0                 5           2             4    7     1       0.2054439875E-03       4    7    1         0.1078595850E-01      0.2292355412E-01
          0                 6           1             4    7     1       0.6146598405E-04       4    7    1         0.3228207728E-02      0.6794092006E-02

    ------------------------------------------------
       NWT REQUIRED            6 OUTER ITERATIONS 
       AND A TOTAL OF         11 INNER ITERATIONS.
    ------------------------------------------------

 NO OUTPUT CONTROL FOR STRESS PERIOD   12   TIME STEP    7
 
 SOLVING FOR HEAD 
                                                   Max.-Head-Change                         Max.-Flux-Residual
  Residual-Control   Outer-Iter.   Inner-Iter.     Column Row Layer    Maximum-Head-Change  Column Row Layer    Maximum-Flux-Residual          L2-NORM 
          0                 1           2             3    7     1       0.4068226608E-01       4    5    1         0.1641716673E+01      0.5372921035E+01
          0                 2           2             4    7     1       0.7599900228E-02       4    7    1         0.3995322486E+00      0.9914466461E+00
          0                 3           2             4    7     1       0.2277439134E-02       4    7    1         0.1193996134E+00      0.2609439211E+00
          0                 4           2             4    7     1       0.6820821462E-03       4    7    1         0.3579914138E-01      0.7689438269E-01
          0                 5           2             4    7     1       0.2041704334E-03       4    7    1         0.1071918856E-01      0.2277922160E-01
          0                 6           1             4    7     1       0.6108429484E-04       4    7    1         0.3208186694E-02      0.6751297482E-02

    ------------------------------------------------
       NWT REQUIRED            6 OUTER ITERATIONS 
       AND A TOTAL OF         11 INNER ITERATIONS.
    ------------------------------------------------

 NO OUTPUT CONTROL FOR STRESS PERIOD   12   TIME STEP    8
 
 SOLVING FOR HEAD 
                                                   Max.-Head-Change                         Max.-Flux-Residual
  Residual-Control   Outer-Iter.   Inner-Iter.     Column Row Layer    Maximum-Head-Change  Column Row Layer    Maximum-Flux-Residual          L2-NORM 
          0                 1           2             3    7     1       0.4038740996E-01       4    5    1         0.1617210402E+01      0.5320432444E+01
          0                 2           2             4    7     1       0.7552848849E-02       4    7    1         0.3970635259E+00      0.9840898019E+00
          0                 3           2             4    7     1       0.2263298032E-02       4    7    1         0.1186598942E+00      0.2592582392E+00
          0                 4           2             4    7     1       0.6778356238E-03       4    7    1         0.3557669515E-01      0.7640221140E-01
          0                 5           2             4    7     1       0.2028961947E-03       4    7    1         0.1065240925E-01      0.2263343195E-01
          0                 6           1             4    7     1       0.6070220933E-04       4    7    1         0.3188152258E-02      0.6708075010E-02

    ------------------------------------------------
       NWT REQUIRED            6 OUTER ITERATIONS 
       AND A TOTAL OF         11 INNER ITERATIONS.
    ------------------------------------------------

 NO OUTPUT CONTROL FOR STRESS PERIOD   12   TIME STEP    9
 
 SOLVING FOR HEAD 
                                                   Max.-Head-Change                         Max.-Flux-Residual
  Residual-Control   Outer-Iter.   Inner-Iter.     Column Row Layer    Maximum-Head-Change  Column Row Layer    Maximum-Flux-Residual          L2-NORM 
          0                 1           2             3    7     1       0.4009647566E-01       4    5    1         0.1593528557E+01      0.5269093692E+01
          0                 2           2             4    7     1       0.7505793630E-02       4    7    1         0.3945955988E+00      0.9767592364E+00
          0                 3           2             4    7     1       0.2249149253E-02       4    7    1         0.1179200178E+00      0.2575589648E+00
          0                 4           2             4    7     1       0.6735849724E-03       4    7    1         0.3535410331E-01      0.7590568220E-01
          0                 5           2             4    7     1       0.2016202061E-03       4    7    1         0.1058555793E-01      0.2248635927E-01
          0                 6           1             4    7     1       0.6031945590E-04       4    7    1         0.3168088327E-02      0.6664475630E-02

    ------------------------------------------------
       NWT REQUIRED            6 OUTER ITERATIONS 
       AND A TOTAL OF         11 INNER ITERATIONS.
    ------------------------------------------------

 NO OUTPUT CONTROL FOR STRESS PERIOD   12   TIME STEP   10
 
 SOLVING FOR HEAD 
                                                   Max.-Head-Change                         Max.-Flux-Residual
  Residual-Control   Outer-Iter.   Inner-Iter.     Column Row Layer    Maximum-Head-Change  Column Row Layer    Maximum-Flux-Residual          L2-NORM 
          0                 1           2             3    7     1       0.3980983241E-01       4    5    1         0.1570631186E+01      0.5218871902E+01
          0                 2           2             4    7     1       0.7458718570E-02       4    7    1         0.3921275047E+00      0.9694587181E+00
          0                 3           2             4    7     1       0.2234988989E-02       4    7    1         0.1171797455E+00      0.2558482513E+00
          0                 4           2             4    7     1       0.6693293330E-03       4    7    1         0.3513130985E-01      0.7540544490E-01
          0                 5           2             4    7     1       0.2003422929E-03       4    7    1         0.1051862227E-01      0.2233819362E-01
          0                 6           1             4    7     1       0.5993600540E-04       4    7    1         0.3147992463E-02      0.6620555076E-02

    ------------------------------------------------
       NWT REQUIRED            6 OUTER ITERATIONS 
       AND A TOTAL OF         11 INNER ITERATIONS.
    ------------------------------------------------

 NO OUTPUT CONTROL FOR STRESS PERIOD   12   TIME STEP   11
 
 SOLVING FOR HEAD 
                                                   Max.-Head-Change                         Max.-Flux-Residual
  Residual-Control   Outer-Iter.   Inner-Iter.     Column Row Layer    Maximum-Head-Change  Column Row Layer    Maximum-Flux-Residual          L2-NORM 
          0                 1           2             3    7     1       0.3952687579E-01       4    5    1         0.1548487839E+01      0.5169719077E+01
          0                 2           2             4    7     1       0.7411656112E-02       4    7    1         0.3896607348E+00      0.9621935812E+00
          0                 3           2             4    7     1       0.2220828341E-02       4    7    1         0.1164396076E+00      0.2541291517E+00
          0                 4           2             4    7     1       0.6650724063E-03       4    7    1         0.3490849452E-01      0.7490242816E-01
          0                 5           2             4    7     1       0.1990636631E-03       4    7    1         0.1045166183E-01      0.2218921000E-01
          0                 6           1             4    7     1       0.5955224840E-04       4    7    1         0.3127884108E-02      0.6576394488E-02

    ------------------------------------------------
       NWT REQUIRED            6 OUTER ITERATIONS 
       AND A TOTAL OF         11 INNER ITERATIONS.
    ------------------------------------------------

 NO OUTPUT CONTROL FOR STRESS PERIOD   12   TIME STEP   12
 
 SOLVING FOR HEAD 
                                                   Max.-Head-Change                         Max.-Flux-Residual
  Residual-Control   Outer-Iter.   Inner-Iter.     Column Row Layer    Maximum-Head-Change  Column Row Layer    Maximum-Flux-Residual          L2-NORM 
          0                 1           2             3    7     1       0.3924773857E-01       4    5    1         0.1527062778E+01      0.5121599813E+01
          0                 2           2             4    7     1       0.7364556640E-02       4    7    1         0.3871925845E+00      0.9549622481E+00
          0                 3           2             4    7     1       0.2206653219E-02       4    7    1         0.1156988347E+00      0.2524018724E+00
          0                 4           2             4    7     1       0.6608101933E-03       4    7    1         0.3468543886E-01      0.7439670130E-01
          0                 5           2             4    7     1       0.1977831844E-03       4    7    1         0.1038461463E-01      0.2203942720E-01
          0                 6           1             4    7     1       0.5916786212E-04       4    7    1         0.3107745613E-02      0.6531999185E-02

    ------------------------------------------------
       NWT REQUIRED            6 OUTER ITERATIONS 
       AND A TOTAL OF         11 INNER ITERATIONS.
    ------------------------------------------------

 NO OUTPUT CONTROL FOR STRESS PERIOD   12   TIME STEP   13
 
 SOLVING FOR HEAD 
                                                   Max.-Head-Change                         Max.-Flux-Residual
  Residual-Control   Outer-Iter.   Inner-Iter.     Column Row Layer    Maximum-Head-Change  Column Row Layer    Maximum-Flux-Residual          L2-NORM 
          0                 1           2             3    7     1       0.3897206549E-01       4    5    1         0.1506314430E+01      0.5074459190E+01
          0                 2           2             4    7     1       0.7317417072E-02       4    7    1         0.3847227539E+00      0.9477598336E+00
          0                 3           2             4    7     1       0.2192463643E-02       4    7    1         0.1149573918E+00      0.2506683468E+00
          0                 4           2             4    7     1       0.6565429675E-03       4    7    1         0.3446214686E-01      0.7388889104E-01
          0                 5           2             4    7     1       0.1965010118E-03       4    7    1         0.1031748597E-01      0.2188903046E-01
          0                 6           1             4    7     1       0.5878291583E-04       4    7    1         0.3087579801E-02      0.6487423706E-02

    ------------------------------------------------
       NWT REQUIRED            6 OUTER ITERATIONS 
       AND A TOTAL OF         11 INNER ITERATIONS.
    ------------------------------------------------

 NO OUTPUT CONTROL FOR STRESS PERIOD   12   TIME STEP   14
 
 SOLVING FOR HEAD 
                                                   Max.-Head-Change                         Max.-Flux-Residual
  Residual-Control   Outer-Iter.   Inner-Iter.     Column Row Layer    Maximum-Head-Change  Column Row Layer    Maximum-Flux-Residual          L2-NORM 
          0                 1           2             3    7     1       0.3870024378E-01       4    5    1         0.1486232828E+01      0.5048838246E+01
          0                 2           2             4    7     1       0.7271266635E-02       4    7    1         0.3822700926E+00      0.9570544432E+00
          0                 3           2             4    7     1       0.2179002793E-02       4    7    1         0.1142349713E+00      0.2565037173E+00
          0                 4           2             4    7     1       0.6527001184E-03       4    7    1         0.3425222901E-01      0.7632474874E-01
          0                 5           2             4    7     1       0.1954340375E-03       4    7    1         0.1025791638E-01      0.2282230435E-01
          0                 6           1             4    7     1       0.5849755202E-04       5    8    1         0.3134050048E-02      0.6829117033E-02

    ------------------------------------------------
       NWT REQUIRED            6 OUTER ITERATIONS 
       AND A TOTAL OF         11 INNER ITERATIONS.
    ------------------------------------------------

 NO OUTPUT CONTROL FOR STRESS PERIOD   12   TIME STEP   15
 
 SOLVING FOR HEAD 
                                                   Max.-Head-Change                         Max.-Flux-Residual
  Residual-Control   Outer-Iter.   Inner-Iter.     Column Row Layer    Maximum-Head-Change  Column Row Layer    Maximum-Flux-Residual          L2-NORM 
          0                 1           2             3    7     1       0.3843177481E-01       5    8    1         0.1482940816E+01      0.5103102797E+01
          0                 2           2             5    8     1       0.8575935863E-02       5    8    1         0.4657089249E+00      0.9993169560E+00
          0                 3           2             5    8     1       0.2612114683E-02       5    8    1         0.1406443366E+00      0.2715709743E+00
          0                 4           2             5    8     1       0.7952044336E-03       5    8    1         0.4291223645E-01      0.8106115464E-01
          0                 5           2             5    8     1       0.2419665083E-03       5    8    1         0.1305885461E-01      0.2429492620E-01
          0                 6           1             5    8     1       0.7359267501E-04       5    8    1         0.3973241863E-02      0.7285651246E-02

    ------------------------------------------------
       NWT REQUIRED            6 OUTER ITERATIONS 
       AND A TOTAL OF         11 INNER ITERATIONS.
    ------------------------------------------------

 NO OUTPUT CONTROL FOR STRESS PERIOD   12   TIME STEP   16
 
 SOLVING FOR HEAD 
                                                   Max.-Head-Change                         Max.-Flux-Residual
  Residual-Control   Outer-Iter.   Inner-Iter.     Column Row Layer    Maximum-Head-Change  Column Row Layer    Maximum-Flux-Residual          L2-NORM 
          0                 1           2             3    7     1       0.3816698971E-01       4    5    1         0.1447897734E+01      0.5056025507E+01
          0                 2           2             5    8     1       0.8295439920E-02       5    8    1         0.4502273135E+00      0.9885162058E+00
          0                 3           2             5    8     1       0.2529217063E-02       5    8    1         0.1360724910E+00      0.2684586343E+00
          0                 4           2             5    8     1       0.7706811574E-03       5    8    1         0.4156077838E-01      0.8011174499E-01
          0                 5           2             5    8     1       0.2347052045E-03       5    8    1         0.1265895931E-01      0.2400513422E-01
          0                 6           1             5    8     1       0.7144073535E-04       5    8    1         0.3854806415E-02      0.7197268908E-02

    ------------------------------------------------
       NWT REQUIRED            6 OUTER ITERATIONS 
       AND A TOTAL OF         11 INNER ITERATIONS.
    ------------------------------------------------

 NO OUTPUT CONTROL FOR STRESS PERIOD   12   TIME STEP   17
 
 SOLVING FOR HEAD 
                                                   Max.-Head-Change                         Max.-Flux-Residual
  Residual-Control   Outer-Iter.   Inner-Iter.     Column Row Layer    Maximum-Head-Change  Column Row Layer    Maximum-Flux-Residual          L2-NORM 
          0                 1           2             3    7     1       0.3790609801E-01       4    5    1         0.1429604196E+01      0.5010374455E+01
          0                 2           2             5    8     1       0.8039983840E-02       5    8    1         0.4361379536E+00      0.9783063327E+00
          0                 3           2             5    8     1       0.2453623629E-02       5    8    1         0.1319076456E+00      0.2655092094E+00
          0                 4           2             5    8     1       0.7482912638E-03       5    8    1         0.4032799613E-01      0.7921203086E-01
          0                 5           2             5    8     1       0.2280677851E-03       5    8    1         0.1229374130E-01      0.2373057223E-01
          0                 6           1             5    8     1       0.6947146129E-04       5    8    1         0.3746514967E-02      0.7113550983E-02

    ------------------------------------------------
       NWT REQUIRED            6 OUTER ITERATIONS 
       AND A TOTAL OF         11 INNER ITERATIONS.
    ------------------------------------------------

 NO OUTPUT CONTROL FOR STRESS PERIOD   12   TIME STEP   18
 
 SOLVING FOR HEAD 
                                                   Max.-Head-Change                         Max.-Flux-Residual
  Residual-Control   Outer-Iter.   Inner-Iter.     Column Row Layer    Maximum-Head-Change  Column Row Layer    Maximum-Flux-Residual          L2-NORM 
          0                 1           2             3    7     1       0.3764857347E-01       4    5    1         0.1411859193E+01      0.4965995714E+01
          0                 2           2             5    8     1       0.7806694123E-02       5    8    1         0.4232804430E+00      0.9685232256E+00
          0                 3           2             5    8     1       0.2384500339E-02       5    8    1         0.1281031567E+00      0.2626973202E+00
          0                 4           2             5    8     1       0.7277923144E-03       5    8    1         0.3920035558E-01      0.7835486326E-01
          0                 5           2             5    8     1       0.2219836767E-03       5    8    1         0.1195926461E-01      0.2346912004E-01
          0                 6           1             5    8     1       0.6766428232E-04       5    8    1         0.3647221396E-02      0.7033865491E-02

    ------------------------------------------------
       NWT REQUIRED            6 OUTER ITERATIONS 
       AND A TOTAL OF         11 INNER ITERATIONS.
    ------------------------------------------------

 NO OUTPUT CONTROL FOR STRESS PERIOD   12   TIME STEP   19
 
 SOLVING FOR HEAD 
                                                   Max.-Head-Change                         Max.-Flux-Residual
  Residual-Control   Outer-Iter.   Inner-Iter.     Column Row Layer    Maximum-Head-Change  Column Row Layer    Maximum-Flux-Residual          L2-NORM 
          0                 1           2             3    7     1       0.3739484573E-01       4    5    1         0.1394631543E+01      0.4922757172E+01
          0                 2           2             5    8     1       0.7593166695E-02       5    8    1         0.4115208294E+00      0.9591084497E+00
          0                 3           2             5    8     1       0.2321148711E-02       5    8    1         0.1246199805E+00      0.2600037916E+00
          0                 4           2             5    8     1       0.7089810820E-03       5    8    1         0.3816651980E-01      0.7753450875E-01
          0                 5           2             5    8     1       0.2163936680E-03       5    8    1         0.1165222904E-01      0.2321906562E-01
          0                 6           1             5    8     1       0.6600192253E-04       5    8    1         0.3555963859E-02      0.6957700306E-02

    ------------------------------------------------
       NWT REQUIRED            6 OUTER ITERATIONS 
       AND A TOTAL OF         11 INNER ITERATIONS.
    ------------------------------------------------

 NO OUTPUT CONTROL FOR STRESS PERIOD   12   TIME STEP   20
 
 SOLVING FOR HEAD 
                                                   Max.-Head-Change                         Max.-Flux-Residual
  Residual-Control   Outer-Iter.   Inner-Iter.     Column Row Layer    Maximum-Head-Change  Column Row Layer    Maximum-Flux-Residual          L2-NORM 
          0                 1           2             3    7     1       0.3714459547E-01       4    5    1         0.1377913839E+01      0.4880544720E+01
          0                 2           2             5    8     1       0.7397249323E-02       5    8    1         0.4007391615E+00      0.9500128213E+00
          0                 3           2             5    8     1       0.2262943389E-02       5    8    1         0.1214231651E+00      0.2574125474E+00
          0                 4           2             5    8     1       0.6916756042E-03       5    8    1         0.3721633857E-01      0.7674612912E-01
          0                 5           2             5    8     1       0.2112447394E-03       5    8    1         0.1136967971E-01      0.2297895459E-01
          0                 6           1             5    8     1       0.6446891316E-04       5    8    1         0.3471881070E-02      0.6884617760E-02

    ------------------------------------------------
       NWT REQUIRED            6 OUTER ITERATIONS 
       AND A TOTAL OF         11 INNER ITERATIONS.
    ------------------------------------------------

 NO OUTPUT CONTROL FOR STRESS PERIOD   12   TIME STEP   21
 
 SOLVING FOR HEAD 
                                                   Max.-Head-Change                         Max.-Flux-Residual
  Residual-Control   Outer-Iter.   Inner-Iter.     Column Row Layer    Maximum-Head-Change  Column Row Layer    Maximum-Flux-Residual          L2-NORM 
          0                 1           2             3    7     1       0.3689773774E-01       4    5    1         0.1361684209E+01      0.4839267913E+01
          0                 2           2             5    8     1       0.7216925744E-02       5    8    1         0.3908231813E+00      0.9411948717E+00
          0                 3           2             5    8     1       0.2209297739E-02       5    8    1         0.1184799552E+00      0.2549098667E+00
          0                 4           2             5    8     1       0.6757049617E-03       5    8    1         0.3634028685E-01      0.7598553832E-01
          0                 5           2             5    8     1       0.2064870269E-03       5    8    1         0.1110884014E-01      0.2274751445E-01
          0                 6           1             5    8     1       0.6305068787E-04       5    8    1         0.3394162751E-02      0.6814231208E-02

    ------------------------------------------------
       NWT REQUIRED            6 OUTER ITERATIONS 
       AND A TOTAL OF         11 INNER ITERATIONS.
    ------------------------------------------------

 NO OUTPUT CONTROL FOR STRESS PERIOD   12   TIME STEP   22
 
 SOLVING FOR HEAD 
                                                   Max.-Head-Change                         Max.-Flux-Residual
  Residual-Control   Outer-Iter.   Inner-Iter.     Column Row Layer    Maximum-Head-Change  Column Row Layer    Maximum-Flux-Residual          L2-NORM 
          0                 1           2             3    7     1       0.3665441923E-01       4    5    1         0.1345914888E+01      0.4798868785E+01
          0                 2           2             5    8     1       0.7050628365E-02       5    8    1         0.3816855877E+00      0.9326254577E+00
          0                 3           2             5    8     1       0.2159756124E-02       5    8    1         0.1157648881E+00      0.2524855433E+00
          0                 4           2             5    8     1       0.6609365377E-03       5    8    1         0.3553096860E-01      0.7524961529E-01
          0                 5           2             5    8     1       0.2020818785E-03       5    8    1         0.1086755654E-01      0.2252379617E-01
          0                 6           1             5    8     1       0.6173596729E-04       5    8    1         0.3322181003E-02      0.6746252078E-02

    ------------------------------------------------
       NWT REQUIRED            6 OUTER ITERATIONS 
       AND A TOTAL OF         11 INNER ITERATIONS.
    ------------------------------------------------

 NO OUTPUT CONTROL FOR STRESS PERIOD   12   TIME STEP   23
 
 SOLVING FOR HEAD 
                                                   Max.-Head-Change                         Max.-Flux-Residual
  Residual-Control   Outer-Iter.   Inner-Iter.     Column Row Layer    Maximum-Head-Change  Column Row Layer    Maximum-Flux-Residual          L2-NORM 
          0                 1           2             3    7     1       0.3641452964E-01       4    5    1         0.1330586503E+01      0.4776553122E+01
          0                 2           2             4    8     1       0.7167716032E-02       4    8    1         0.3811767989E+00      0.9400908343E+00
          0                 3           2             4    8     1       0.2238746562E-02       4    8    1         0.1183375857E+00      0.2580075062E+00
          0                 4           2             4    8     1       0.6985764480E-03       4    8    1         0.3700383585E-01      0.7777020229E-01
          0                 5           2             4    8     1       0.2177883752E-03       4    8    1         0.1154190353E-01      0.2355040646E-01
          0                 6           1             4    8     1       0.6784094976E-04       4    8    1         0.3597624991E-02      0.7140046590E-02

    ------------------------------------------------
       NWT REQUIRED            6 OUTER ITERATIONS 
       AND A TOTAL OF         11 INNER ITERATIONS.
    ------------------------------------------------

 NO OUTPUT CONTROL FOR STRESS PERIOD   12   TIME STEP   24
 
 SOLVING FOR HEAD 
                                                   Max.-Head-Change                         Max.-Flux-Residual
  Residual-Control   Outer-Iter.   Inner-Iter.     Column Row Layer    Maximum-Head-Change  Column Row Layer    Maximum-Flux-Residual          L2-NORM 
          0                 1           2             3    7     1       0.3617998706E-01       4    8    1         0.1593749230E+01      0.4857831467E+01
          0                 2           2             4    8     1       0.9396130302E-02       4    8    1         0.5024413924E+00      0.9907604283E+00
          0                 3           2             4    8     1       0.2909680317E-02       4    8    1         0.1548323042E+00      0.2760821942E+00
          0                 4           2             4    8     1       0.9007231980E-03       4    8    1         0.4799324377E-01      0.8356710904E-01
          0                 5           2             4    8     1       0.2787345562E-03       4    8    1         0.1485351150E-01      0.2539322559E-01
          0                 6           1             4    8     1       0.8622789613E-04       4    8    1         0.4596222843E-02      0.7723984238E-02

    ------------------------------------------------
       NWT REQUIRED            6 OUTER ITERATIONS 
       AND A TOTAL OF         11 INNER ITERATIONS.
    ------------------------------------------------

 NO OUTPUT CONTROL FOR STRESS PERIOD   12   TIME STEP   25
 
 SOLVING FOR HEAD 
                                                   Max.-Head-Change                         Max.-Flux-Residual
  Residual-Control   Outer-Iter.   Inner-Iter.     Column Row Layer    Maximum-Head-Change  Column Row Layer    Maximum-Flux-Residual          L2-NORM 
          0                 1           2             3    7     1       0.3595343922E-01       4    8    1         0.1552101491E+01      0.4888919582E+01
          0                 2           2             4    8     1       0.9166010407E-02       4    8    1         0.4898865522E+00      0.1020868766E+01
          0                 3           2             4    8     1       0.2840973289E-02       4    8    1         0.1510668308E+00      0.2887560610E+00
          0                 4           2             4    8     1       0.8803479039E-03       4    8    1         0.4687069965E-01      0.8818983491E-01
          0                 5           2             4    8     1       0.2727397473E-03       4    8    1         0.1452120616E-01      0.2702456931E-01
          0                 6           1             4    8     1       0.8448030774E-04       4    8    1         0.4498655127E-02      0.8288018284E-02

    ------------------------------------------------
       NWT REQUIRED            6 OUTER ITERATIONS 
       AND A TOTAL OF         11 INNER ITERATIONS.
    ------------------------------------------------

 NO OUTPUT CONTROL FOR STRESS PERIOD   12   TIME STEP   26
 
 SOLVING FOR HEAD 
                                                   Max.-Head-Change                         Max.-Flux-Residual
  Residual-Control   Outer-Iter.   Inner-Iter.     Column Row Layer    Maximum-Head-Change  Column Row Layer    Maximum-Flux-Residual          L2-NORM 
          0                 1           2             3    7     1       0.3573530982E-01       5    7    1         0.1557162823E+01      0.4909396891E+01
          0                 2           2             5    7     1       0.9087159582E-02       5    7    1         0.4876474630E+00      0.1037719078E+01
          0                 3           2             5    7     1       0.2799119307E-02       5    7    1         0.1495630056E+00      0.2946568096E+00
          0                 4           2             5    7     1       0.8618291510E-03       5    7    1         0.4610883493E-01      0.9002311502E-01
          0                 5           2             4    8     1       0.2671102039E-03       4    8    1         0.1421209447E-01      0.2758944963E-01
          0                 6           1             4    8     1       0.8280903148E-04       4    8    1         0.4406737671E-02      0.8461672456E-02

    ------------------------------------------------
       NWT REQUIRED            6 OUTER ITERATIONS 
       AND A TOTAL OF         11 INNER ITERATIONS.
    ------------------------------------------------

 NO OUTPUT CONTROL FOR STRESS PERIOD   12   TIME STEP   27
 
 SOLVING FOR HEAD 
                                                   Max.-Head-Change                         Max.-Flux-Residual
  Residual-Control   Outer-Iter.   Inner-Iter.     Column Row Layer    Maximum-Head-Change  Column Row Layer    Maximum-Flux-Residual          L2-NORM 
          0                 1           2             3    7     1       0.3552532621E-01       5    7    1         0.1506546411E+01      0.4867247399E+01
          0                 2           2             5    7     1       0.8818389446E-02       5    7    1         0.4727709517E+00      0.1025122745E+01
          0                 3           2             4    8     1       0.2718085836E-02       5    7    1         0.1449207368E+00      0.2905766971E+00
          0                 4           2             4    8     1       0.8434771066E-03       4    8    1         0.4485966808E-01      0.8870240040E-01
          0                 5           2             4    8     1       0.2616780124E-03       4    8    1         0.1391784083E-01      0.2716354453E-01
          0                 6           1             4    8     1       0.8116173487E-04       4    8    1         0.4317640348E-02      0.8324796428E-02

    ------------------------------------------------
       NWT REQUIRED            6 OUTER ITERATIONS 
       AND A TOTAL OF         11 INNER ITERATIONS.
    ------------------------------------------------

 NO OUTPUT CONTROL FOR STRESS PERIOD   12   TIME STEP   28
 
 SOLVING FOR HEAD 
                                                   Max.-Head-Change                         Max.-Flux-Residual
  Residual-Control   Outer-Iter.   Inner-Iter.     Column Row Layer    Maximum-Head-Change  Column Row Layer    Maximum-Flux-Residual          L2-NORM 
          0                 1           2             3    7     1       0.3532213004E-01       5    7    1         0.1460202860E+01      0.4826619482E+01
          0                 2           2             4    8     1       0.8572746195E-02       5    7    1         0.4589977162E+00      0.1013007726E+01
          0                 3           2             4    8     1       0.2662588695E-02       4    8    1         0.1413544385E+00      0.2867043667E+00
          0                 4           2             4    8     1       0.8266830898E-03       4    8    1         0.4394986290E-01      0.8749745403E-01
          0                 5           2             4    8     1       0.2565869836E-03       4    8    1         0.1364239947E-01      0.2678911123E-01
          0                 6           1             4    8     1       0.7961586992E-04       4    8    1         0.4234105483E-02      0.8208598990E-02

    ------------------------------------------------
       NWT REQUIRED            6 OUTER ITERATIONS 
       AND A TOTAL OF         11 INNER ITERATIONS.
    ------------------------------------------------

 NO OUTPUT CONTROL FOR STRESS PERIOD   12   TIME STEP   29
 
 SOLVING FOR HEAD 
                                                   Max.-Head-Change                         Max.-Flux-Residual
  Residual-Control   Outer-Iter.   Inner-Iter.     Column Row Layer    Maximum-Head-Change  Column Row Layer    Maximum-Flux-Residual          L2-NORM 
          0                 1           2             3    7     1       0.3518204838E-01       4    7    1         0.1556250186E+01      0.4935259252E+01
          0                 2           2             4    7     1       0.9362927654E-02       4    7    1         0.4936866376E+00      0.1082769437E+01
          0                 3           2             4    7     1       0.2943263208E-02       4    7    1         0.1549495218E+00      0.3146077254E+00
          0                 4           2             4    7     1       0.9244978206E-03       4    7    1         0.4872077457E-01      0.9755396530E-01
          0                 5           2             4    7     1       0.2901863248E-03       4    7    1         0.1529979242E-01      0.3032029932E-01
          0                 6           1             4    7     1       0.9102759470E-04       4    7    1         0.4801622660E-02      0.9428005438E-02

    ------------------------------------------------
       NWT REQUIRED            6 OUTER ITERATIONS 
       AND A TOTAL OF         11 INNER ITERATIONS.
    ------------------------------------------------

 NO OUTPUT CONTROL FOR STRESS PERIOD   12   TIME STEP   30



 STREAM LISTING     PERIOD     12   STEP       30

 LAYER ROW COL. STREAM  RCH.  FLOW INTO     FLOW TO   FLOW OUT OF   OVRLND.     DIRECT     STREAM       STREAM     STREAM     STREAM   STREAMBED  STREAMBED
                SEG.NO.  NO.  STRM. RCH.    AQUIFER    STRM. RCH.    RUNOFF     PRECIP       ET          HEAD       DEPTH      WIDTH   CONDCTNC.   GRADIENT

   1    1    1     1     1    9.5403E+00  1.4421E-01   9.3961E+00  0.000E+00  0.000E+00  0.000E+00  1.09393E+03  8.839E-01  8.251E+00  3.713E-02  1.295E+00
   1    2    2     1     2    9.3961E+00  2.2163E-01   9.1745E+00  0.000E+00  0.000E+00  0.000E+00  1.08894E+03  8.782E-01  8.164E+00  5.715E-02  1.293E+00
   1    3    3     1     3    9.1745E+00  1.8736E-01   8.9871E+00  0.000E+00  0.000E+00  0.000E+00  1.08329E+03  8.718E-01  8.065E+00  4.839E-02  1.291E+00
   1    3    4     1     4    8.9871E+00  1.7119E-01   8.8160E+00  0.000E+00  0.000E+00  0.000E+00  1.07827E+03  8.661E-01  7.978E+00  4.428E-02  1.289E+00
   1    4    5     2     1    6.8160E+00  2.7666E-01   6.5393E+00  0.000E+00  0.000E+00  0.000E+00  1.07248E+03  5.469E-01  1.200E+01  7.800E-02  1.182E+00
   1    5    6     2     2    6.5393E+00  2.1209E-01   6.3272E+00  0.000E+00  0.000E+00  0.000E+00  1.06704E+03  5.348E-01  1.200E+01  6.000E-02  1.178E+00
   1    6    6     2     3    6.3272E+00  2.1145E-01   6.1158E+00  0.000E+00  0.000E+00  0.000E+00  1.06232E+03  5.242E-01  1.200E+01  6.000E-02  1.175E+00
   1    7    6     2     4    6.1158E+00  2.1081E-01   5.9050E+00  0.000E+00  0.000E+00  0.000E+00  1.05759E+03  5.134E-01  1.200E+01  6.000E-02  1.171E+00
   1    8    6     2     5    5.9050E+00  2.1015E-01   5.6948E+00  0.000E+00  0.000E+00  0.000E+00  1.05286E+03  5.026E-01  1.200E+01  6.000E-02  1.168E+00
   1    3    5     3     1    2.0000E+00  2.8252E-01   1.7175E+00  0.000E+00  0.000E+00  0.000E+00  1.07555E+03  1.909E+00  9.636E+00  7.227E-02  1.955E+00
   1    3    6     3     2    1.7175E+00  2.4905E-01   1.4684E+00  0.000E+00  0.000E+00  0.000E+00  1.07264E+03  1.727E+00  8.909E+00  6.682E-02  1.864E+00
   1    3    7     3     3    1.4684E+00  1.9718E-01   1.2712E+00  0.000E+00  0.000E+00  0.000E+00  1.06987E+03  1.555E+00  8.218E+00  5.547E-02  1.777E+00
   1    4    8     3     4    1.2712E+00  2.2567E-01   1.0456E+00  0.000E+00  0.000E+00  0.000E+00  1.06682E+03  1.364E+00  7.455E+00  6.709E-02  1.682E+00
   1    5    8     3     5    1.0456E+00  1.5790E-01   8.8768E-01  0.000E+00  0.000E+00  0.000E+00  1.06362E+03  1.164E+00  6.655E+00  4.991E-02  1.582E+00
   1    6    8     3     6    8.8768E-01  5.5980E-02   8.3170E-01  0.000E+00  0.000E+00  0.000E+00  1.06158E+03  1.036E+00  6.145E+00  1.844E-02  1.518E+00
   1    5   10     4     1    1.0000E+01  9.0919E-02   9.9091E+00  0.000E+00  0.000E+00  0.000E+00  1.07836E+03  6.368E-01  1.000E+01  2.500E-02  1.212E+00
   1    5    9     4     2    9.9091E+00  1.8158E-01   9.7275E+00  0.000E+00  0.000E+00  0.000E+00  1.07154E+03  6.315E-01  1.000E+01  5.000E-02  1.211E+00
   1    6    8     4     3    9.7275E+00  1.2689E-01   9.6006E+00  0.000E+00  0.000E+00  0.000E+00  1.06381E+03  6.256E-01  1.000E+01  3.500E-02  1.209E+00
   1    6    8     5     1    1.0432E+01  2.2686E-01   1.0205E+01  0.000E+00  0.000E+00  0.000E+00  1.05868E+03  6.790E-01  1.542E+01  6.166E-02  1.226E+00
   1    7    7     5     2    1.0205E+01  2.7894E-01   9.9265E+00  0.000E+00  0.000E+00  0.000E+00  1.05417E+03  6.732E-01  1.519E+01  7.594E-02  1.224E+00
   1    8    7     5     3    9.9265E+00  1.9221E-01   9.7343E+00  0.000E+00  0.000E+00  0.000E+00  1.04992E+03  6.676E-01  1.497E+01  5.241E-02  1.223E+00
   1    8    6     5     4    9.7343E+00  1.3577E-01   9.5985E+00  0.000E+00  0.000E+00  0.000E+00  1.04691E+03  6.637E-01  1.482E+01  3.706E-02  1.221E+00
   1    9    6     6     1    1.5293E+01  2.3430E-01   1.5059E+01  0.000E+00  0.000E+00  0.000E+00  1.04363E+03  9.050E-01  1.200E+01  6.000E-02  1.302E+00
   1   10    7     6     2    1.5059E+01  2.3380E-01   1.4825E+01  0.000E+00  0.000E+00  0.000E+00  1.03908E+03  8.966E-01  1.200E+01  6.000E-02  1.299E+00
   1   11    7     6     3    1.4825E+01  2.3329E-01   1.4592E+01  0.000E+00  0.000E+00  0.000E+00  1.03452E+03  8.882E-01  1.200E+01  6.000E-02  1.296E+00
   1   12    7     6     4    1.4592E+01  2.3278E-01   1.4359E+01  0.000E+00  0.000E+00  0.000E+00  1.02997E+03  8.797E-01  1.200E+01  6.000E-02  1.293E+00
   1   13    7     6     5    1.4359E+01  4.8925E-04   1.4359E+01  0.000E+00  0.000E+00  0.000E+00  1.02678E+03  8.755E-01  1.200E+01  2.400E-02  6.795E-03
   1   14    9     7     1    1.5000E+02  1.3700E+00   1.4863E+02  0.000E+00  0.000E+00  0.000E+00  1.03987E+03  2.288E+00  5.529E+01  5.593E-01  8.165E-01
   1   13    8     7     2    1.4863E+02  1.9306E+00   1.4670E+02  0.000E+00  0.000E+00  0.000E+00  1.03478E+03  2.279E+00  5.525E+01  6.148E-01  1.047E+00
   1   13    7     7     3    1.4670E+02  1.6330E+00   1.4507E+02  0.000E+00  0.000E+00  0.000E+00  1.02969E+03  2.269E+00  5.521E+01  5.584E-01  9.748E-01
   1   13    6     8     1    1.5943E+02  1.0360E+00   1.5839E+02  0.000E+00  0.000E+00  0.000E+00  1.02475E+03  2.878E+00  4.174E+01  4.253E-01  8.120E-01
   1   13    5     8     2    1.5839E+02  3.0532E-01   1.5808E+02  0.000E+00  0.000E+00  0.000E+00  1.01850E+03  2.874E+00  4.167E+01  4.246E-01  2.397E-01
   1   13    4     8     3    1.5808E+02 -1.9502E+00   1.6003E+02  0.000E+00  0.000E+00  0.000E+00  1.01225E+03  2.879E+00  4.175E+01  4.255E+00 -1.528E-01
   1   13    3     8     4    1.6003E+02 -3.4394E+00   1.6347E+02  0.000E+00  0.000E+00  0.000E+00  1.00602E+03  2.898E+00  4.202E+01  4.282E+00 -2.678E-01
   1   13    2     8     5    1.6347E+02 -2.5430E+00   1.6602E+02  0.000E+00  0.000E+00  0.000E+00  9.99793E+02  2.918E+00  4.231E+01  4.311E+00 -1.966E-01
   1   13    1     8     6    1.6602E+02 -1.9755E+00   1.6799E+02  0.000E+00  0.000E+00  0.000E+00  9.94808E+02  2.933E+00  4.252E+01  2.600E+00 -2.533E-01
   1    8    6     9     1    0.0000E+00  0.0000E+00   0.0000E+00  0.000E+00  0.000E+00  0.000E+00  1.07875E+03  0.000E+00  4.000E+00  0.000E+00  1.000E+00
   1    8    5     9     2    0.0000E+00  0.0000E+00   0.0000E+00  0.000E+00  0.000E+00  0.000E+00  1.07825E+03  0.000E+00  4.000E+00  0.000E+00  1.000E+00





UNSATURATED ZONE PACKAGE VOLUMETRIC BUDGET FOR  TIME STEP    30 STRESS PERIOD   12
  ------------------------------------------------------------------------------



     CUMULATIVE VOLUMES      L**3       RATES FOR THIS TIME STEP      L**3/T
     ------------------                 ------------------------

           IN:                                      IN:
           ---                                      ---
        INFILTRATION =  1932421896.9798          INFILTRATION =           0.8475

          OUT:                                     OUT:
          ----                                     ----
              UZF ET =   430320492.1273                UZF ET =           0.7500
        UZF RECHARGE =  1029810034.3281          UZF RECHARGE =          15.0789

            IN - OUT =   472291370.5244              IN - OUT =         -14.9814

          STORAGE:                                 STORAGE:
          --------                                 --------
      STORAGE CHANGE =   472291762.7703        STORAGE CHANGE =         -14.9814

 PERCENT DISCREPANCY IS DIFFERENCE BETWEEN IN-OUT MINUS CHANGE IN STORAGE
 DIVIDED BY THE AVERAGE OF IN AND OUT TIMES 100

 PERCENT DISCREPANCY =          -0.00     PERCENT DISCREPANCY =           0.00






1
  VOLUMETRIC BUDGET FOR AGRICULTURAL FIELDS AT  END OF TIME STEP   30, STRESS PERIOD  12
  ------------------------------------------------------------------------------

     CUMULATIVE VOLUMES      L**3       RATES FOR THIS TIME STEP      L**3/T
     ------------------                 ------------------------

           IN:                                      IN:
           ---                                      ---
               AG WELLS  =  1630378752.0000                 AG WELLS  =           0.0000
      DIVERSION SEGMENTS =   277447584.0000        DIVERSION SEGMENTS =           0.0000
           GW IRRIGATION =           0.0000             GW IRRIGATION =           0.0000
           SW IRRIGATION =           0.0000             SW IRRIGATION =           0.0000
        SYSTEM LOSSES GW =           0.0000          SYSTEM LOSSES GW =           0.0000
        SYSTEM LOSSES SW =           0.0000          SYSTEM LOSSES SW =           0.0000

                TOTAL IN =  1907826304.0000                  TOTAL IN =           0.0000

          OUT:                                     OUT:
          ----                                     ----
               AG WELLS  =           0.0000                 AG WELLS  =           0.0000
      DIVERSION SEGMENTS =           0.0000        DIVERSION SEGMENTS =           0.0000
           GW IRRIGATION =  1630378752.0000             GW IRRIGATION =           0.0000
           SW IRRIGATION =   277452768.0000             SW IRRIGATION =           0.0000
        SYSTEM LOSSES GW =           0.0000          SYSTEM LOSSES GW =           0.0000
        SYSTEM LOSSES SW =           0.0000          SYSTEM LOSSES SW =           0.0000

               TOTAL OUT =  1907831552.0000                 TOTAL OUT =           0.0000

                IN - OUT =       -5248.0000                  IN - OUT =           0.0000

     PERCENT DISCREPANCY =          -0.00         PERCENT DISCREPANCY =           0.00



1
  VOLUMETRIC BUDGET FOR ENTIRE MODEL AT END OF TIME STEP   30, STRESS PERIOD  12
  ------------------------------------------------------------------------------

     CUMULATIVE VOLUMES      L**3       RATES FOR THIS TIME STEP      L**3/T
     ------------------                 ------------------------

           IN:                                      IN:
           ---                                      ---
             STORAGE     =  1867439872.0000               STORAGE     =           9.3961
       CONSTANT HEAD     =           0.0000         CONSTANT HEAD     =           0.0000
     HEAD DEP BOUNDS     =     8354841.0000       HEAD DEP BOUNDS     =           0.2881
      STREAM LEAKAGE     =   341313024.0000        STREAM LEAKAGE     =          11.4566
        UZF RECHARGE     =  1029809984.0000          UZF RECHARGE     =          15.0789
               GW ET     =           0.0000                 GW ET     =           0.0000
     SURFACE LEAKAGE     =           0.0000       SURFACE LEAKAGE     =           0.0000
           AG WELLS      =           0.0000             AG WELLS      =           0.0000

                TOTAL IN =  3246917632.0000                  TOTAL IN =          36.2197

          OUT:                                     OUT:
          ----                                     ----
             STORAGE     =  1309974528.0000               STORAGE     =          26.0169
       CONSTANT HEAD     =           0.0000         CONSTANT HEAD     =           0.0000
     HEAD DEP BOUNDS     =     8345952.5000       HEAD DEP BOUNDS     =           0.2876
      STREAM LEAKAGE     =   298191648.0000        STREAM LEAKAGE     =           9.9082
        UZF RECHARGE     =           0.0000          UZF RECHARGE     =           0.0000
               GW ET     =           0.0000                 GW ET     =           0.0000
     SURFACE LEAKAGE     =           0.0000       SURFACE LEAKAGE     =           0.0000
           AG WELLS      =  1630378752.0000             AG WELLS      =           0.0000

               TOTAL OUT =  3246891008.0000                 TOTAL OUT =          36.2126

                IN - OUT =       26624.0000                  IN - OUT =       7.0724E-03

     PERCENT DISCREPANCY =           0.00         PERCENT DISCREPANCY =           0.02






         TIME SUMMARY AT END OF TIME STEP   30 IN STRESS PERIOD   12
                    SECONDS     MINUTES      HOURS       DAYS        YEARS
                    -----------------------------------------------------------
   TIME STEP LENGTH  87667.      1461.1      24.352      1.0147     2.77799E-03
 STRESS PERIOD TIME 2.63000E+06  43833.      730.56      30.440     8.33397E-02
         TOTAL TIME 2.90163E+07 4.83606E+05  8060.1      335.84     0.91947    
1
1
                            STRESS PERIOD NO.   13, LENGTH =   2630000.    
                            -----------------------------------------------

                              NUMBER OF TIME STEPS =    30

                               MULTIPLIER FOR DELT =     1.000

                            INITIAL TIME STEP SIZE =   87666.66    

 REUSING NON-PARAMETER GHB CELLS FROM LAST STRESS PERIOD

      2 GHB CELLS

 REUSING STREAM SEGMENT DATA FROM LAST STRESS PERIOD



            AREAL INFILTRATION RATE
 READING ON UNIT   19 WITH FORMAT: (FREE)              

            1           2           3           4           5           6           7           8           9          10
 ........................................................................................................................
   1   1.0000E-10  2.0000E-10   0.000       0.000       0.000       0.000       0.000       0.000       0.000       0.000    
   2   2.0000E-10  1.0000E-10  2.0000E-10   0.000       0.000      8.0000E-10  8.0000E-10  5.0000E-10   0.000       0.000    
   3    0.000      5.0000E-10  1.0000E-10  1.0000E-10  8.0000E-10  8.0000E-10  5.0000E-10  5.0000E-10   0.000       0.000    
   4   8.0000E-10  5.0000E-10  1.0000E-10  1.0000E-10  1.0000E-10  1.0000E-10  1.0000E-10  1.0000E-10  2.0000E-10   0.000    
   5   8.0000E-10  5.0000E-10  1.0000E-10  1.0000E-10  1.0000E-10  1.0000E-10  1.0000E-10  1.0000E-10  1.0000E-10  1.0000E-10
   6   8.0000E-10  5.0000E-10  5.0000E-10  2.0000E-10  2.0000E-10  1.0000E-10  1.0000E-10  1.0000E-10  1.0000E-10  5.0000E-10
   7   8.0000E-10  5.0000E-10  5.0000E-10  2.0000E-10  2.0000E-10  1.0000E-10  1.0000E-10  2.0000E-10  2.0000E-10   0.000    
   8    0.000      5.0000E-10  5.0000E-10  2.0000E-10  2.0000E-10  1.0000E-10  1.0000E-10  2.0000E-10  5.0000E-10   0.000    
   9    0.000      5.0000E-10  5.0000E-10  2.0000E-10  2.0000E-10  1.0000E-10  1.0000E-10  2.0000E-10  5.0000E-10   0.000    
  10    0.000      5.0000E-10  5.0000E-10  2.0000E-10  2.0000E-10  1.0000E-10  1.0000E-10  2.0000E-10  5.0000E-10  8.0000E-10
  11    0.000      1.0000E-10  1.0000E-10  1.0000E-10  1.0000E-10  1.0000E-10  1.0000E-10  2.0000E-10  5.0000E-10   0.000    
  12   1.0000E-10  1.0000E-10  1.0000E-10  1.0000E-10  1.0000E-10  1.0000E-10  1.0000E-10  1.0000E-10  2.0000E-10   0.000    
  13   1.0000E-10  1.0000E-10  2.0000E-10  2.0000E-10  2.0000E-10  2.0000E-10  2.0000E-10  1.0000E-10  1.0000E-10   0.000    
  14    0.000      2.0000E-10  5.0000E-10  5.0000E-10  5.0000E-10  5.0000E-10  5.0000E-10  2.0000E-10  1.0000E-10   0.000    
  15    0.000       0.000      8.0000E-10  8.0000E-10  8.0000E-10  8.0000E-10   0.000       0.000       0.000       0.000    

                  ET RATE =  5.000000E-10

 USING ET EXTINCTION DEPTH FROM PREVIOUS STRESS PERIOD. CURRENT PERIOD IS:      13

 USING EXTINCTION WATER CONTENT FROM PREVIOUS STRESS PERIOD. CURRENT PERIOD IS:      13

 USING AIR ENTRY PRESSURE FROM PREVIOUS STRESS PERIOD. CURRENT PERIOD IS:      13

 USING ROOT PRESSURE HEAD FROM PREVIOUS STRESS PERIOD. CURRENT PERIOD IS:      13

 USING ROOT ACTIVITY FROM PREVIOUS STRESS PERIOD. CURRENT PERIOD IS:      13

 PROCESSING AG STRESS PERIOD DATA

 READING AG STRESS PERIOD DATA

 READING IRRIGATION SEGMENT

 READING IRRIGATION WELL

 READING SUPPLEMENTAL WELL

 END PROCESSING AG STRESS PERIOD DATA OPTIONS
 
 SOLVING FOR HEAD 
                                                   Max.-Head-Change                         Max.-Flux-Residual
  Residual-Control   Outer-Iter.   Inner-Iter.     Column Row Layer    Maximum-Head-Change  Column Row Layer    Maximum-Flux-Residual          L2-NORM 
          0                 1           2             3    7     1       0.3510967122E-01       4    7    1         0.1698138273E+01      0.5013502481E+01
          0                 2           2             4    7     1       0.1013756667E-01       4    7    1         0.5360284489E+00      0.1121997037E+01
          0                 3           2             4    7     1       0.3175381448E-02       4    7    1         0.1676172218E+00      0.3276250313E+00
          0                 4           2             4    7     1       0.9941994771E-03       4    7    1         0.5251862568E-01      0.1015839694E+00
          0                 5           2             4    7     1       0.3111595385E-03       4    7    1         0.1644083460E-01      0.3156308202E-01
          0                 6           1             4    7     1       0.9735080743E-04       4    7    1         0.5145135321E-02      0.9811209289E-02

    ------------------------------------------------
       NWT REQUIRED            6 OUTER ITERATIONS 
       AND A TOTAL OF         11 INNER ITERATIONS.
    ------------------------------------------------

 NO OUTPUT CONTROL FOR STRESS PERIOD   13   TIME STEP    1
 
 SOLVING FOR HEAD 
                                                   Max.-Head-Change                         Max.-Flux-Residual
  Residual-Control   Outer-Iter.   Inner-Iter.     Column Row Layer    Maximum-Head-Change  Column Row Layer    Maximum-Flux-Residual          L2-NORM 
          0                 1           2             3    7     1       0.3504712162E-01       4    7    1         0.1664653519E+01      0.4972275099E+01
          0                 2           2             4    7     1       0.9949270441E-02       4    7    1         0.5258624080E+00      0.1107687965E+01
          0                 3           2             4    7     1       0.3118004092E-02       4    7    1         0.1645253214E+00      0.3230357380E+00
          0                 4           2             4    7     1       0.9766773690E-03       4    7    1         0.5157589851E-01      0.1001498868E+00
          0                 5           2             4    7     1       0.3057977878E-03       4    7    1         0.1615279030E-01      0.3111607801E-01
          0                 6           1             4    7     1       0.9570707515E-04       4    7    1         0.5056951104E-02      0.9671974021E-02

    ------------------------------------------------
       NWT REQUIRED            6 OUTER ITERATIONS 
       AND A TOTAL OF         11 INNER ITERATIONS.
    ------------------------------------------------

 NO OUTPUT CONTROL FOR STRESS PERIOD   13   TIME STEP    2
 
 SOLVING FOR HEAD 
                                                   Max.-Head-Change                         Max.-Flux-Residual
  Residual-Control   Outer-Iter.   Inner-Iter.     Column Row Layer    Maximum-Head-Change  Column Row Layer    Maximum-Flux-Residual          L2-NORM 
          0                 1           2             3    7     1       0.3497708127E-01       4    7    1         0.1633190388E+01      0.4932347429E+01
          0                 2           2             4    7     1       0.9771551816E-02       4    7    1         0.5162844686E+00      0.1093945577E+01
          0                 3           2             4    7     1       0.3063726708E-02       4    7    1         0.1616053989E+00      0.3186319391E+00
          0                 4           2             4    7     1       0.9600669753E-03       4    7    1         0.5068361299E-01      0.9877249404E-01
          0                 5           2             4    7     1       0.3007051229E-03       4    7    1         0.1587959461E-01      0.3068638632E-01
          0                 6           1             4    7     1       0.9414303976E-04       4    7    1         0.4973153237E-02      0.9538035293E-02

    ------------------------------------------------
       NWT REQUIRED            6 OUTER ITERATIONS 
       AND A TOTAL OF         11 INNER ITERATIONS.
    ------------------------------------------------

 NO OUTPUT CONTROL FOR STRESS PERIOD   13   TIME STEP    3
 
 SOLVING FOR HEAD 
                                                   Max.-Head-Change                         Max.-Flux-Residual
  Residual-Control   Outer-Iter.   Inner-Iter.     Column Row Layer    Maximum-Head-Change  Column Row Layer    Maximum-Flux-Residual          L2-NORM 
          0                 1           2             3    7     1       0.3490000230E-01       4    7    1         0.1603544664E+01      0.4893581017E+01
          0                 2           2             4    7     1       0.9603382686E-02       4    7    1         0.5072364803E+00      0.1080719255E+01
          0                 3           2             4    7     1       0.3012255019E-02       4    7    1         0.1588408371E+00      0.3143955323E+00
          0                 4           2             4    7     1       0.9442838361E-03       4    7    1         0.4983700988E-01      0.9744657170E-01
          0                 5           2             4    7     1       0.2958572329E-03       4    7    1         0.1561988058E-01      0.3027250898E-01
          0                 6           1             4    7     1       0.9265168388E-04       4    7    1         0.4893348003E-02      0.9408957705E-02

    ------------------------------------------------
       NWT REQUIRED            6 OUTER ITERATIONS 
       AND A TOTAL OF         11 INNER ITERATIONS.
    ------------------------------------------------

 NO OUTPUT CONTROL FOR STRESS PERIOD   13   TIME STEP    4
 
 SOLVING FOR HEAD 
                                                   Max.-Head-Change                         Max.-Flux-Residual
  Residual-Control   Outer-Iter.   Inner-Iter.     Column Row Layer    Maximum-Head-Change  Column Row Layer    Maximum-Flux-Residual          L2-NORM 
          0                 1           2             3    7     1       0.3481699477E-01       4    7    1         0.1575524134E+01      0.4855849598E+01
          0                 2           2             4    7     1       0.9443792622E-02       4    7    1         0.4986636616E+00      0.1067956772E+01
          0                 3           2             4    7     1       0.2963310629E-02       4    7    1         0.1562159413E+00      0.3103105980E+00
          0                 4           2             4    7     1       0.9292478637E-03       4    7    1         0.4903158427E-01      0.9616751534E-01
          0                 5           2             4    7     1       0.2912310122E-03       4    7    1         0.1537235128E-01      0.2987310470E-01
          0                 6           1             4    7     1       0.9122631931E-04       4    7    1         0.4817160903E-02      0.9284348920E-02

    ------------------------------------------------
       NWT REQUIRED            6 OUTER ITERATIONS 
       AND A TOTAL OF         11 INNER ITERATIONS.
    ------------------------------------------------

 NO OUTPUT CONTROL FOR STRESS PERIOD   13   TIME STEP    5
 
 SOLVING FOR HEAD 
                                                   Max.-Head-Change                         Max.-Flux-Residual
  Residual-Control   Outer-Iter.   Inner-Iter.     Column Row Layer    Maximum-Head-Change  Column Row Layer    Maximum-Flux-Residual          L2-NORM 
          0                 1           2             3    7     1       0.3472812765E-01       4    7    1         0.1548961405E+01      0.4819021172E+01
          0                 2           2             4    7     1       0.9291924527E-02       4    7    1         0.4905178765E+00      0.1055609033E+01
          0                 3           2             4    7     1       0.2916645702E-02       4    7    1         0.1537168240E+00      0.3063621612E+00
          0                 4           2             4    7     1       0.9148871632E-03       4    7    1         0.4826331728E-01      0.9493090844E-01
          0                 5           2             4    7     1       0.2868055358E-03       4    7    1         0.1513583994E-01      0.2948686500E-01
          0                 6           1             4    7     1       0.8986083631E-04       4    7    1         0.4744252074E-02      0.9163819398E-02

    ------------------------------------------------
       NWT REQUIRED            6 OUTER ITERATIONS 
       AND A TOTAL OF         11 INNER ITERATIONS.
    ------------------------------------------------

 NO OUTPUT CONTROL FOR STRESS PERIOD   13   TIME STEP    6
 
 SOLVING FOR HEAD 
                                                   Max.-Head-Change                         Max.-Flux-Residual
  Residual-Control   Outer-Iter.   Inner-Iter.     Column Row Layer    Maximum-Head-Change  Column Row Layer    Maximum-Flux-Residual          L2-NORM 
          0                 1           2             3    7     1       0.3463470157E-01       4    7    1         0.1523723934E+01      0.4823645971E+01
          0                 2           2             4    7     1       0.9181363557E-02       4    7    1         0.4836805909E+00      0.1068401508E+01
          0                 3           2             4    7     1       0.2890736214E-02       4    7    1         0.1519881502E+00      0.3126821934E+00
          0                 4           2             4    7     1       0.9098369057E-03       4    7    1         0.4787087267E-01      0.9742608191E-01
          0                 5           2             4    7     1       0.2862715313E-03       4    7    1         0.1506489195E-01      0.3042392879E-01
          0                 6           1             4    7     1       0.9004472020E-04       4    7    1         0.4739695371E-02      0.9503386424E-02

    ------------------------------------------------
       NWT REQUIRED            6 OUTER ITERATIONS 
       AND A TOTAL OF         11 INNER ITERATIONS.
    ------------------------------------------------

 NO OUTPUT CONTROL FOR STRESS PERIOD   13   TIME STEP    7
 
 SOLVING FOR HEAD 
                                                   Max.-Head-Change                         Max.-Flux-Residual
  Residual-Control   Outer-Iter.   Inner-Iter.     Column Row Layer    Maximum-Head-Change  Column Row Layer    Maximum-Flux-Residual          L2-NORM 
          0                 1           2             3    7     1       0.3453920126E-01       4    6    1         0.1586900066E+01      0.4883991073E+01
          0                 2           2             4    6     1       0.9385701464E-02       4    6    1         0.5016771076E+00      0.1098773533E+01
          0                 3           2             4    6     1       0.2911597032E-02       4    6    1         0.1546885505E+00      0.3226173446E+00
          0                 4           2             4    7     1       0.9094057564E-03       4    6    1         0.4804779316E-01      0.1005394291E+00
          0                 5           2             4    7     1       0.2868989523E-03       4    7    1         0.1506817261E-01      0.3138912834E-01
          0                 6           1             4    7     1       0.9045985101E-04       4    7    1         0.4753057070E-02      0.9802846514E-02

    ------------------------------------------------
       NWT REQUIRED            6 OUTER ITERATIONS 
       AND A TOTAL OF         11 INNER ITERATIONS.
    ------------------------------------------------

 NO OUTPUT CONTROL FOR STRESS PERIOD   13   TIME STEP    8
 
 SOLVING FOR HEAD 
                                                   Max.-Head-Change                         Max.-Flux-Residual
  Residual-Control   Outer-Iter.   Inner-Iter.     Column Row Layer    Maximum-Head-Change  Column Row Layer    Maximum-Flux-Residual          L2-NORM 
          0                 1           2             3    7     1       0.3444331243E-01       4    6    1         0.1550306152E+01      0.4847535667E+01
          0                 2           2             4    6     1       0.9179291305E-02       4    6    1         0.4905571803E+00      0.1085485864E+01
          0                 3           2             4    7     1       0.2853314378E-02       4    6    1         0.1512970890E+00      0.3183479850E+00
          0                 4           2             4    7     1       0.9004536648E-03       4    7    1         0.4728390319E-01      0.9920727587E-01
          0                 5           2             4    7     1       0.2840020641E-03       4    7    1         0.1491885422E-01      0.3097415027E-01
          0                 6           1             4    7     1       0.8952563999E-04       4    7    1         0.4704781384E-02      0.9673538649E-02

    ------------------------------------------------
       NWT REQUIRED            6 OUTER ITERATIONS 
       AND A TOTAL OF         11 INNER ITERATIONS.
    ------------------------------------------------

 NO OUTPUT CONTROL FOR STRESS PERIOD   13   TIME STEP    9
 
 SOLVING FOR HEAD 
                                                   Max.-Head-Change                         Max.-Flux-Residual
  Residual-Control   Outer-Iter.   Inner-Iter.     Column Row Layer    Maximum-Head-Change  Column Row Layer    Maximum-Flux-Residual          L2-NORM 
          0                 1           2             3    7     1       0.3434619908E-01       4    6    1         0.1515881731E+01      0.4811835632E+01
          0                 2           2             4    6     1       0.8984676273E-02       4    6    1         0.4800799348E+00      0.1072590413E+01
          0                 3           2             4    7     1       0.2825249097E-02       4    7    1         0.1482499219E+00      0.3142065741E+00
          0                 4           2             4    7     1       0.8913776059E-03       4    7    1         0.4681585456E-01      0.9791452863E-01
          0                 5           2             4    7     1       0.2810767671E-03       4    7    1         0.1476762714E-01      0.3057130011E-01
          0                 6           1             4    7     1       0.8858553936E-04       4    7    1         0.4656076728E-02      0.9547967839E-02

    ------------------------------------------------
       NWT REQUIRED            6 OUTER ITERATIONS 
       AND A TOTAL OF         11 INNER ITERATIONS.
    ------------------------------------------------

 NO OUTPUT CONTROL FOR STRESS PERIOD   13   TIME STEP   10
 
 SOLVING FOR HEAD 
                                                   Max.-Head-Change                         Max.-Flux-Residual
  Residual-Control   Outer-Iter.   Inner-Iter.     Column Row Layer    Maximum-Head-Change  Column Row Layer    Maximum-Flux-Residual          L2-NORM 
          0                 1           2             3    7     1       0.3424748717E-01       4    6    1         0.1483430685E+01      0.4776838323E+01
          0                 2           2             4    7     1       0.8861392357E-02       4    6    1         0.4701879417E+00      0.1060062600E+01
          0                 3           2             4    7     1       0.2796816039E-02       4    7    1         0.1467831872E+00      0.3101857925E+00
          0                 4           2             4    7     1       0.8822180261E-03       4    7    1         0.4634215344E-01      0.9665900750E-01
          0                 5           2             4    7     1       0.2781344593E-03       4    7    1         0.1461514296E-01      0.3017992491E-01
          0                 6           1             4    7     1       0.8764275404E-04       4    7    1         0.4607126599E-02      0.9425937966E-02

    ------------------------------------------------
       NWT REQUIRED            6 OUTER ITERATIONS 
       AND A TOTAL OF         11 INNER ITERATIONS.
    ------------------------------------------------

 NO OUTPUT CONTROL FOR STRESS PERIOD   13   TIME STEP   11
 
 SOLVING FOR HEAD 
                                                   Max.-Head-Change                         Max.-Flux-Residual
  Residual-Control   Outer-Iter.   Inner-Iter.     Column Row Layer    Maximum-Head-Change  Column Row Layer    Maximum-Flux-Residual          L2-NORM 
          0                 1           2             3    7     1       0.3414708224E-01       4    6    1         0.1452798411E+01      0.4742503014E+01
          0                 2           2             4    7     1       0.8772294778E-02       4    7    1         0.4613114517E+00      0.1047881812E+01
          0                 3           2             4    7     1       0.2768128239E-02       4    7    1         0.1452991857E+00      0.3062789345E+00
          0                 4           2             4    7     1       0.8730067761E-03       4    7    1         0.4586462096E-01      0.9543869144E-01
          0                 5           2             4    7     1       0.2751840904E-03       4    7    1         0.1446191450E-01      0.2979941667E-01
          0                 6           1             4    7     1       0.8669979201E-04       4    7    1         0.4558075023E-02      0.9307265446E-02

    ------------------------------------------------
       NWT REQUIRED            6 OUTER ITERATIONS 
       AND A TOTAL OF         11 INNER ITERATIONS.
    ------------------------------------------------

 NO OUTPUT CONTROL FOR STRESS PERIOD   13   TIME STEP   12
 
 SOLVING FOR HEAD 
                                                   Max.-Head-Change                         Max.-Flux-Residual
  Residual-Control   Outer-Iter.   Inner-Iter.     Column Row Layer    Maximum-Head-Change  Column Row Layer    Maximum-Flux-Residual          L2-NORM 
          0                 1           2             3    7     1       0.3404515878E-01       4    7    1         0.1434573593E+01      0.4708798358E+01
          0                 2           2             4    7     1       0.8682495868E-02       4    7    1         0.4566617221E+00      0.1036031044E+01
          0                 3           2             4    7     1       0.2739305987E-02       4    7    1         0.1438047453E+00      0.3024806111E+00
          0                 4           2             4    7     1       0.8637780324E-03       4    7    1         0.4538519895E-01      0.9425197020E-01
          0                 5           2             4    7     1       0.2722353566E-03       4    7    1         0.1430849329E-01      0.2942929164E-01
          0                 6           1             4    7     1       0.8575939912E-04       4    7    1         0.4509078416E-02      0.9191804733E-02

    ------------------------------------------------
       NWT REQUIRED            6 OUTER ITERATIONS 
       AND A TOTAL OF         11 INNER ITERATIONS.
    ------------------------------------------------

 NO OUTPUT CONTROL FOR STRESS PERIOD   13   TIME STEP   13
 
 SOLVING FOR HEAD 
                                                   Max.-Head-Change                         Max.-Flux-Residual
  Residual-Control   Outer-Iter.   Inner-Iter.     Column Row Layer    Maximum-Head-Change  Column Row Layer    Maximum-Flux-Residual          L2-NORM 
          0                 1           2             3    7     1       0.3394166367E-01       4    7    1         0.1420035076E+01      0.4675688916E+01
          0                 2           2             4    7     1       0.8592242658E-02       4    7    1         0.4519776064E+00      0.1024491524E+01
          0                 3           2             4    7     1       0.2710417728E-02       4    7    1         0.1423038300E+00      0.2987847639E+00
          0                 4           2             4    7     1       0.8545506603E-03       4    7    1         0.4490498439E-01      0.9309699926E-01
          0                 5           2             4    7     1       0.2692934260E-03       4    7    1         0.1415518125E-01      0.2906898902E-01
          0                 6           1             4    7     1       0.8482297950E-04       4    7    1         0.4460219311E-02      0.9079374084E-02

    ------------------------------------------------
       NWT REQUIRED            6 OUTER ITERATIONS 
       AND A TOTAL OF         11 INNER ITERATIONS.
    ------------------------------------------------

 NO OUTPUT CONTROL FOR STRESS PERIOD   13   TIME STEP   14
 
 SOLVING FOR HEAD 
                                                   Max.-Head-Change                         Max.-Flux-Residual
  Residual-Control   Outer-Iter.   Inner-Iter.     Column Row Layer    Maximum-Head-Change  Column Row Layer    Maximum-Flux-Residual          L2-NORM 
          0                 1           2             3    7     1       0.3383632500E-01       4    7    1         0.1405412618E+01      0.4643145221E+01
          0                 2           2             4    7     1       0.8501901157E-02       4    7    1         0.4472798192E+00      0.1013248812E+01
          0                 3           2             4    7     1       0.2681567830E-02       4    7    1         0.1408023541E+00      0.2951868348E+00
          0                 4           2             4    7     1       0.8453543836E-03       4    7    1         0.4442566311E-01      0.9197240946E-01
          0                 5           2             4    7     1       0.2663667517E-03       4    7    1         0.1400245835E-01      0.2871809626E-01
          0                 6           1             4    7     1       0.8389293408E-04       4    7    1         0.4411634159E-02      0.8969870679E-02

    ------------------------------------------------
       NWT REQUIRED            6 OUTER ITERATIONS 
       AND A TOTAL OF         11 INNER ITERATIONS.
    ------------------------------------------------

 NO OUTPUT CONTROL FOR STRESS PERIOD   13   TIME STEP   15
 
 SOLVING FOR HEAD 
                                                   Max.-Head-Change                         Max.-Flux-Residual
  Residual-Control   Outer-Iter.   Inner-Iter.     Column Row Layer    Maximum-Head-Change  Column Row Layer    Maximum-Flux-Residual          L2-NORM 
          0                 1           2             3    7     1       0.3372913673E-01       4    7    1         0.1390754741E+01      0.4611148477E+01
          0                 2           2             4    7     1       0.8411708677E-02       4    7    1         0.4425819846E+00      0.1002289516E+01
          0                 3           2             4    7     1       0.2652820322E-02       4    7    1         0.1393041333E+00      0.2916449708E+00
          0                 4           2             4    7     1       0.8362045723E-03       4    7    1         0.4394825064E-01      0.9084024689E-01
          0                 5           2             4    7     1       0.2634579682E-03       4    7    1         0.1385055865E-01      0.2835698560E-01
          0                 6           1             4    7     1       0.8296911768E-04       4    7    1         0.4363309178E-02      0.8854804067E-02

    ------------------------------------------------
       NWT REQUIRED            6 OUTER ITERATIONS 
       AND A TOTAL OF         11 INNER ITERATIONS.
    ------------------------------------------------

 NO OUTPUT CONTROL FOR STRESS PERIOD   13   TIME STEP   16
 
 SOLVING FOR HEAD 
                                                   Max.-Head-Change                         Max.-Flux-Residual
  Residual-Control   Outer-Iter.   Inner-Iter.     Column Row Layer    Maximum-Head-Change  Column Row Layer    Maximum-Flux-Residual          L2-NORM 
          0                 1           2             3    7     1       0.3362034711E-01       4    7    1         0.1376087818E+01      0.4579670414E+01
          0                 2           2             4    7     1       0.8321775935E-02       4    7    1         0.4378911952E+00      0.9915484233E+00
          0                 3           2             4    7     1       0.2624202803E-02       4    7    1         0.1378108740E+00      0.2881433796E+00
          0                 4           2             4    7     1       0.8271103365E-03       4    7    1         0.4347317842E-01      0.8974665401E-01
          0                 5           2             4    7     1       0.2605714598E-03       4    7    1         0.1369963782E-01      0.2801589634E-01
          0                 6           1             4    7     1       0.8205395324E-04       4    7    1         0.4315420731E-02      0.8748396023E-02

    ------------------------------------------------
       NWT REQUIRED            6 OUTER ITERATIONS 
       AND A TOTAL OF         11 INNER ITERATIONS.
    ------------------------------------------------

 NO OUTPUT CONTROL FOR STRESS PERIOD   13   TIME STEP   17
 
 SOLVING FOR HEAD 
                                                   Max.-Head-Change                         Max.-Flux-Residual
  Residual-Control   Outer-Iter.   Inner-Iter.     Column Row Layer    Maximum-Head-Change  Column Row Layer    Maximum-Flux-Residual          L2-NORM 
          0                 1           2             3    7     1       0.3350972498E-01       4    7    1         0.1361462391E+01      0.4548688945E+01
          0                 2           2             4    7     1       0.8232361836E-02       4    7    1         0.4332216185E+00      0.9810138894E+00
          0                 3           2             4    7     1       0.2595794483E-02       4    7    1         0.1363268085E+00      0.2847769271E+00
          0                 4           2             4    7     1       0.8180957360E-03       4    7    1         0.4300175156E-01      0.8869435723E-01
          0                 5           2             4    7     1       0.2577141420E-03       4    7    1         0.1355008998E-01      0.2768755692E-01
          0                 6           1             4    7     1       0.8114920981E-04       4    7    1         0.4268031941E-02      0.8645931101E-02

    ------------------------------------------------
       NWT REQUIRED            6 OUTER ITERATIONS 
       AND A TOTAL OF         11 INNER ITERATIONS.
    ------------------------------------------------

 NO OUTPUT CONTROL FOR STRESS PERIOD   13   TIME STEP   18
 
 SOLVING FOR HEAD 
                                                   Max.-Head-Change                         Max.-Flux-Residual
  Residual-Control   Outer-Iter.   Inner-Iter.     Column Row Layer    Maximum-Head-Change  Column Row Layer    Maximum-Flux-Residual          L2-NORM 
          0                 1           2             3    7     1       0.3339729866E-01       4    7    1         0.1346900555E+01      0.4518193593E+01
          0                 2           2             4    7     1       0.8143566999E-02       4    7    1         0.4285793524E+00      0.9707333738E+00
          0                 3           2             4    7     1       0.2567619597E-02       4    7    1         0.1348535223E+00      0.2814944603E+00
          0                 4           2             4    7     1       0.8091657132E-03       4    7    1         0.4253434029E-01      0.8766815822E-01
          0                 5           2             4    7     1       0.2548866461E-03       4    7    1         0.1340198600E-01      0.2736730947E-01
          0                 6           1             4    7     1       0.8025477483E-04       4    7    1         0.4221149436E-02      0.8545976390E-02

    ------------------------------------------------
       NWT REQUIRED            6 OUTER ITERATIONS 
       AND A TOTAL OF         11 INNER ITERATIONS.
    ------------------------------------------------

 NO OUTPUT CONTROL FOR STRESS PERIOD   13   TIME STEP   19
 
 SOLVING FOR HEAD 
                                                   Max.-Head-Change                         Max.-Flux-Residual
  Residual-Control   Outer-Iter.   Inner-Iter.     Column Row Layer    Maximum-Head-Change  Column Row Layer    Maximum-Flux-Residual          L2-NORM 
          0                 1           2             3    7     1       0.3328322550E-01       4    7    1         0.1332427639E+01      0.4404199924E+01
          0                 2           2             4    7     1       0.8043687385E-02       4    7    1         0.4237317889E+00      0.9068521972E+00
          0                 3           2             4    7     1       0.2532028672E-02       4    7    1         0.1331588979E+00      0.2583668516E+00
          0                 4           2             4    7     1       0.7963341836E-03       4    7    1         0.4192725080E-01      0.7987846660E-01
          0                 5           2             4    7     1       0.2502549221E-03       4    7    1         0.1318272264E-01      0.2480302699E-01
          0                 6           1             4    7     1       0.7859024882E-04       4    7    1         0.4142016487E-02      0.7709054197E-02

    ------------------------------------------------
       NWT REQUIRED            6 OUTER ITERATIONS 
       AND A TOTAL OF         11 INNER ITERATIONS.
    ------------------------------------------------

 NO OUTPUT CONTROL FOR STRESS PERIOD   13   TIME STEP   20
 
 SOLVING FOR HEAD 
                                                   Max.-Head-Change                         Max.-Flux-Residual
  Residual-Control   Outer-Iter.   Inner-Iter.     Column Row Layer    Maximum-Head-Change  Column Row Layer    Maximum-Flux-Residual          L2-NORM 
          0                 1           2             3    7     1       0.3316668541E-01       4    7    1         0.1316744640E+01      0.4345609740E+01
          0                 2           2             4    7     1       0.7938690379E-02       4    7    1         0.4184366169E+00      0.8895581694E+00
          0                 3           2             4    7     1       0.2497325612E-02       4    7    1         0.1313973784E+00      0.2530382415E+00
          0                 4           2             4    7     1       0.7849542421E-03       4    7    1         0.4134622409E-01      0.7824224289E-01
          0                 5           2             4    7     1       0.2465470335E-03       4    7    1         0.1299252530E-01      0.2429850533E-01
          0                 6           1             4    7     1       0.7738852466E-04       4    7    1         0.4080134088E-02      0.7553030121E-02

    ------------------------------------------------
       NWT REQUIRED            6 OUTER ITERATIONS 
       AND A TOTAL OF         11 INNER ITERATIONS.
    ------------------------------------------------

 NO OUTPUT CONTROL FOR STRESS PERIOD   13   TIME STEP   21
 
 SOLVING FOR HEAD 
                                                   Max.-Head-Change                         Max.-Flux-Residual
  Residual-Control   Outer-Iter.   Inner-Iter.     Column Row Layer    Maximum-Head-Change  Column Row Layer    Maximum-Flux-Residual          L2-NORM 
          0                 1           2             3    7     1       0.3304750019E-01       4    7    1         0.1300095965E+01      0.4283332008E+01
          0                 2           2             4    7     1       0.7830398215E-02       4    7    1         0.4129075850E+00      0.8723731108E+00
          0                 3           2             4    7     1       0.2462079454E-02       4    7    1         0.1295873463E+00      0.2480297570E+00
          0                 4           2             4    7     1       0.7735608971E-03       4    7    1         0.4075819905E-01      0.7676034024E-01
          0                 5           2             4    7     1       0.2428835013E-03       4    7    1         0.1280273533E-01      0.2385058391E-01
          0                 6           1             4    7     1       0.7621544208E-04       4    7    1         0.4019178775E-02      0.7416148694E-02

    ------------------------------------------------
       NWT REQUIRED            6 OUTER ITERATIONS 
       AND A TOTAL OF         11 INNER ITERATIONS.
    ------------------------------------------------

 NO OUTPUT CONTROL FOR STRESS PERIOD   13   TIME STEP   22
 
 SOLVING FOR HEAD 
                                                   Max.-Head-Change                         Max.-Flux-Residual
  Residual-Control   Outer-Iter.   Inner-Iter.     Column Row Layer    Maximum-Head-Change  Column Row Layer    Maximum-Flux-Residual          L2-NORM 
          0                 1           2             3    7     1       0.3292577415E-01       4    7    1         0.1282781436E+01      0.4227643264E+01
          0                 2           2             4    7     1       0.7720158312E-02       4    7    1         0.4072333110E+00      0.8569302952E+00
          0                 3           2             4    7     1       0.2426525521E-02       4    7    1         0.1277493391E+00      0.2434537942E+00
          0                 4           2             4    7     1       0.7621551218E-03       4    7    1         0.4016625651E-01      0.7538951085E-01
          0                 5           2             4    7     1       0.2392396205E-03       4    7    1         0.1261306590E-01      0.2343384761E-01
          0                 6           1             4    7     1       0.7505518083E-04       4    7    1         0.3958640159E-02      0.7288428318E-02

    ------------------------------------------------
       NWT REQUIRED            6 OUTER ITERATIONS 
       AND A TOTAL OF         11 INNER ITERATIONS.
    ------------------------------------------------

 NO OUTPUT CONTROL FOR STRESS PERIOD   13   TIME STEP   23
 
 SOLVING FOR HEAD 
                                                   Max.-Head-Change                         Max.-Flux-Residual
  Residual-Control   Outer-Iter.   Inner-Iter.     Column Row Layer    Maximum-Head-Change  Column Row Layer    Maximum-Flux-Residual          L2-NORM 
          0                 1           2             3    7     1       0.3280095394E-01       4    7    1         0.1265046516E+01      0.4177366590E+01
          0                 2           2             4    7     1       0.7609082010E-02       4    7    1         0.4014797836E+00      0.8429448956E+00
          0                 3           2             4    7     1       0.2390958447E-02       4    7    1         0.1259010059E+00      0.2392456816E+00
          0                 4           2             4    7     1       0.7508145590E-03       4    7    1         0.3957506021E-01      0.7411771963E-01
          0                 5           2             4    7     1       0.2356358044E-03       4    7    1         0.1242474470E-01      0.2304557795E-01
          0                 6           1             4    7     1       0.7391305788E-04       4    7    1         0.3898840896E-02      0.7169090156E-02

    ------------------------------------------------
       NWT REQUIRED            6 OUTER ITERATIONS 
       AND A TOTAL OF         11 INNER ITERATIONS.
    ------------------------------------------------

 NO OUTPUT CONTROL FOR STRESS PERIOD   13   TIME STEP   24
 
 SOLVING FOR HEAD 
                                                   Max.-Head-Change                         Max.-Flux-Residual
  Residual-Control   Outer-Iter.   Inner-Iter.     Column Row Layer    Maximum-Head-Change  Column Row Layer    Maximum-Flux-Residual          L2-NORM 
          0                 1           2             3    7     1       0.3267352209E-01       4    7    1         0.1247090562E+01      0.4131560854E+01
          0                 2           2             4    7     1       0.7498070909E-02       4    7    1         0.3957006132E+00      0.8301882239E+00
          0                 3           2             4    7     1       0.2355619492E-02       4    7    1         0.1240566580E+00      0.2353579923E+00
          0                 4           2             4    7     1       0.7396028176E-03       4    7    1         0.3898844302E-01      0.7292672996E-01
          0                 5           2             4    7     1       0.2320877247E-03       4    7    1         0.1223877635E-01      0.2267705686E-01
          0                 6           1             4    7     1       0.7279232568E-04       4    7    1         0.3840022460E-02      0.7054270904E-02

    ------------------------------------------------
       NWT REQUIRED            6 OUTER ITERATIONS 
       AND A TOTAL OF         11 INNER ITERATIONS.
    ------------------------------------------------

 NO OUTPUT CONTROL FOR STRESS PERIOD   13   TIME STEP   25
 
 SOLVING FOR HEAD 
                                                   Max.-Head-Change                         Max.-Flux-Residual
  Residual-Control   Outer-Iter.   Inner-Iter.     Column Row Layer    Maximum-Head-Change  Column Row Layer    Maximum-Flux-Residual          L2-NORM 
          0                 1           2             3    7     1       0.3254327082E-01       4    7    1         0.1229068137E+01      0.4089473348E+01
          0                 2           2             4    7     1       0.7387799334E-02       4    7    1         0.3899365989E+00      0.8184190417E+00
          0                 3           2             4    7     1       0.2320680022E-02       4    7    1         0.1222269284E+00      0.2317403937E+00
          0                 4           2             4    7     1       0.7285624147E-03       4    7    1         0.3840908077E-01      0.7181137882E-01
          0                 5           2             4    7     1       0.2286064157E-03       4    7    1         0.1205582093E-01      0.2233197391E-01
          0                 6           1             4    7     1       0.7169638548E-04       4    7    1         0.3782359601E-02      0.6947271834E-02

    ------------------------------------------------
       NWT REQUIRED            6 OUTER ITERATIONS 
       AND A TOTAL OF         11 INNER ITERATIONS.
    ------------------------------------------------

 NO OUTPUT CONTROL FOR STRESS PERIOD   13   TIME STEP   26
 
 SOLVING FOR HEAD 
                                                   Max.-Head-Change                         Max.-Flux-Residual
  Residual-Control   Outer-Iter.   Inner-Iter.     Column Row Layer    Maximum-Head-Change  Column Row Layer    Maximum-Flux-Residual          L2-NORM 
          0                 1           2             3    7     1       0.3241003222E-01       4    7    1         0.1211116557E+01      0.4050500715E+01
          0                 2           2             4    7     1       0.7278867896E-02       4    7    1         0.3842238917E+00      0.8076198211E+00
          0                 3           2             4    7     1       0.2286297990E-02       4    7    1         0.1204213067E+00      0.2283643965E+00
          0                 4           2             4    7     1       0.7177346268E-03       4    7    1         0.3783947089E-01      0.7076255405E-01
          0                 5           2             4    7     1       0.2252022367E-03       4    7    1         0.1187652930E-01      0.2200611791E-01
          0                 6           1             4    7     1       0.7062753131E-04       4    7    1         0.3726013260E-02      0.6845970663E-02

    ------------------------------------------------
       NWT REQUIRED            6 OUTER ITERATIONS 
       AND A TOTAL OF         11 INNER ITERATIONS.
    ------------------------------------------------

 NO OUTPUT CONTROL FOR STRESS PERIOD   13   TIME STEP   27
 
 SOLVING FOR HEAD 
                                                   Max.-Head-Change                         Max.-Flux-Residual
  Residual-Control   Outer-Iter.   Inner-Iter.     Column Row Layer    Maximum-Head-Change  Column Row Layer    Maximum-Flux-Residual          L2-NORM 
          0                 1           2             3    7     1       0.3227440268E-01       4    7    1         0.1193337637E+01      0.4014167694E+01
          0                 2           2             4    7     1       0.7171713853E-02       4    7    1         0.3785892177E+00      0.7975114988E+00
          0                 3           2             4    7     1       0.2252583185E-02       4    7    1         0.1186466612E+00      0.2251931655E+00
          0                 4           2             4    7     1       0.7071458920E-03       4    7    1         0.3728132195E-01      0.6977145460E-01
          0                 5           2             4    7     1       0.2218811751E-03       4    7    1         0.1170130747E-01      0.2169715029E-01
          0                 6           1             4    7     1       0.6958698433E-04       4    7    1         0.3671073470E-02      0.6749750894E-02

    ------------------------------------------------
       NWT REQUIRED            6 OUTER ITERATIONS 
       AND A TOTAL OF         11 INNER ITERATIONS.
    ------------------------------------------------

 NO OUTPUT CONTROL FOR STRESS PERIOD   13   TIME STEP   28
 
 SOLVING FOR HEAD 
                                                   Max.-Head-Change                         Max.-Flux-Residual
  Residual-Control   Outer-Iter.   Inner-Iter.     Column Row Layer    Maximum-Head-Change  Column Row Layer    Maximum-Flux-Residual          L2-NORM 
          0                 1           2             3    7     1       0.3213625844E-01       4    7    1         0.1175811413E+01      0.3979928144E+01
          0                 2           2             4    7     1       0.7066663359E-02       4    7    1         0.3730529199E+00      0.7880468350E+00
          0                 3           2             4    7     1       0.2219615838E-02       4    7    1         0.1169080739E+00      0.2222030902E+00
          0                 4           2             4    7     1       0.6968153664E-03       4    7    1         0.3673587636E-01      0.6883215139E-01
          0                 5           2             4    7     1       0.2186475878E-03       4    7    1         0.1153044914E-01      0.2140350661E-01
          0                 6           1             4    7     1       0.6857565395E-04       4    7    1         0.3617605932E-02      0.6658158856E-02

    ------------------------------------------------
       NWT REQUIRED            6 OUTER ITERATIONS 
       AND A TOTAL OF         11 INNER ITERATIONS.
    ------------------------------------------------

 NO OUTPUT CONTROL FOR STRESS PERIOD   13   TIME STEP   29
 
 SOLVING FOR HEAD 
                                                   Max.-Head-Change                         Max.-Flux-Residual
  Residual-Control   Outer-Iter.   Inner-Iter.     Column Row Layer    Maximum-Head-Change  Column Row Layer    Maximum-Flux-Residual          L2-NORM 
          0                 1           2             3    7     1       0.3199549665E-01       4    7    1         0.1158591478E+01      0.3947528698E+01
          0                 2           2             4    7     1       0.6963921763E-02       4    7    1         0.3676282059E+00      0.7791373425E+00
          0                 3           2             4    7     1       0.2187443364E-02       4    7    1         0.1152087045E+00      0.2193744953E+00
          0                 4           2             4    7     1       0.6867531975E-03       4    7    1         0.3620385268E-01      0.6793980146E-01
          0                 5           2             4    7     1       0.2155033405E-03       4    7    1         0.1136410392E-01      0.2112389252E-01
          0                 6           1             4    7     1       0.6759375526E-04       4    7    1         0.3565636345E-02      0.6570828080E-02

    ------------------------------------------------
       NWT REQUIRED            6 OUTER ITERATIONS 
       AND A TOTAL OF         11 INNER ITERATIONS.
    ------------------------------------------------

 NO OUTPUT CONTROL FOR STRESS PERIOD   13   TIME STEP   30



 STREAM LISTING     PERIOD     13   STEP       30

 LAYER ROW COL. STREAM  RCH.  FLOW INTO     FLOW TO   FLOW OUT OF   OVRLND.     DIRECT     STREAM       STREAM     STREAM     STREAM   STREAMBED  STREAMBED
                SEG.NO.  NO.  STRM. RCH.    AQUIFER    STRM. RCH.    RUNOFF     PRECIP       ET          HEAD       DEPTH      WIDTH   CONDCTNC.   GRADIENT

   1    1    1     1     1    8.6249E+00  1.3546E-01   8.4895E+00  0.000E+00  0.000E+00  0.000E+00  1.09390E+03  8.549E-01  7.809E+00  3.514E-02  1.285E+00
   1    2    2     1     2    8.4895E+00  2.0809E-01   8.2814E+00  0.000E+00  0.000E+00  0.000E+00  1.08891E+03  8.492E-01  7.723E+00  5.406E-02  1.283E+00
   1    3    3     1     3    8.2814E+00  1.7583E-01   8.1056E+00  0.000E+00  0.000E+00  0.000E+00  1.08326E+03  8.427E-01  7.626E+00  4.576E-02  1.281E+00
   1    3    4     1     4    8.1056E+00  1.6058E-01   7.9450E+00  0.000E+00  0.000E+00  0.000E+00  1.07824E+03  8.369E-01  7.541E+00  4.185E-02  1.279E+00
   1    4    5     2     1    5.9450E+00  2.7323E-01   5.6717E+00  0.000E+00  0.000E+00  0.000E+00  1.07244E+03  5.030E-01  1.200E+01  7.800E-02  1.168E+00
   1    5    6     2     2    5.6717E+00  2.0942E-01   5.4623E+00  0.000E+00  0.000E+00  0.000E+00  1.06700E+03  4.904E-01  1.200E+01  6.000E-02  1.163E+00
   1    6    6     2     3    5.4623E+00  2.0875E-01   5.2536E+00  0.000E+00  0.000E+00  0.000E+00  1.06227E+03  4.792E-01  1.200E+01  6.000E-02  1.160E+00
   1    7    6     2     4    5.2536E+00  2.0808E-01   5.0455E+00  0.000E+00  0.000E+00  0.000E+00  1.05754E+03  4.680E-01  1.200E+01  6.000E-02  1.156E+00
   1    8    6     2     5    5.0455E+00  2.0739E-01   4.8381E+00  0.000E+00  0.000E+00  0.000E+00  1.05282E+03  4.565E-01  1.200E+01  6.000E-02  1.152E+00
   1    3    5     3     1    2.0000E+00  2.8252E-01   1.7175E+00  0.000E+00  0.000E+00  0.000E+00  1.07555E+03  1.909E+00  9.636E+00  7.227E-02  1.955E+00
   1    3    6     3     2    1.7175E+00  2.4905E-01   1.4684E+00  0.000E+00  0.000E+00  0.000E+00  1.07264E+03  1.727E+00  8.909E+00  6.682E-02  1.864E+00
   1    3    7     3     3    1.4684E+00  1.9718E-01   1.2712E+00  0.000E+00  0.000E+00  0.000E+00  1.06987E+03  1.555E+00  8.218E+00  5.547E-02  1.777E+00
   1    4    8     3     4    1.2712E+00  2.2567E-01   1.0456E+00  0.000E+00  0.000E+00  0.000E+00  1.06682E+03  1.364E+00  7.455E+00  6.709E-02  1.682E+00
   1    5    8     3     5    1.0456E+00  1.5790E-01   8.8768E-01  0.000E+00  0.000E+00  0.000E+00  1.06362E+03  1.164E+00  6.655E+00  4.991E-02  1.582E+00
   1    6    8     3     6    8.8768E-01  5.5980E-02   8.3170E-01  0.000E+00  0.000E+00  0.000E+00  1.06158E+03  1.036E+00  6.145E+00  1.844E-02  1.518E+00
   1    5   10     4     1    1.0000E+01  9.0919E-02   9.9091E+00  0.000E+00  0.000E+00  0.000E+00  1.07836E+03  6.368E-01  1.000E+01  2.500E-02  1.212E+00
   1    5    9     4     2    9.9091E+00  1.8158E-01   9.7275E+00  0.000E+00  0.000E+00  0.000E+00  1.07154E+03  6.315E-01  1.000E+01  5.000E-02  1.211E+00
   1    6    8     4     3    9.7275E+00  1.2689E-01   9.6006E+00  0.000E+00  0.000E+00  0.000E+00  1.06381E+03  6.256E-01  1.000E+01  3.500E-02  1.209E+00
   1    6    8     5     1    1.0432E+01  2.2686E-01   1.0205E+01  0.000E+00  0.000E+00  0.000E+00  1.05868E+03  6.790E-01  1.542E+01  6.166E-02  1.226E+00
   1    7    7     5     2    1.0205E+01  2.7894E-01   9.9265E+00  0.000E+00  0.000E+00  0.000E+00  1.05417E+03  6.732E-01  1.519E+01  7.594E-02  1.224E+00
   1    8    7     5     3    9.9265E+00  1.9221E-01   9.7343E+00  0.000E+00  0.000E+00  0.000E+00  1.04992E+03  6.676E-01  1.497E+01  5.241E-02  1.223E+00
   1    8    6     5     4    9.7343E+00  1.3577E-01   9.5985E+00  0.000E+00  0.000E+00  0.000E+00  1.04691E+03  6.637E-01  1.482E+01  3.706E-02  1.221E+00
   1    9    6     6     1    1.4437E+01  2.3244E-01   1.4204E+01  0.000E+00  0.000E+00  0.000E+00  1.04360E+03  8.741E-01  1.200E+01  6.000E-02  1.291E+00
   1   10    7     6     2    1.4204E+01  2.3193E-01   1.3972E+01  0.000E+00  0.000E+00  0.000E+00  1.03905E+03  8.655E-01  1.200E+01  6.000E-02  1.289E+00
   1   11    7     6     3    1.3972E+01  2.3142E-01   1.3741E+01  0.000E+00  0.000E+00  0.000E+00  1.03449E+03  8.570E-01  1.200E+01  6.000E-02  1.286E+00
   1   12    7     6     4    1.3741E+01  2.3090E-01   1.3510E+01  0.000E+00  0.000E+00  0.000E+00  1.02994E+03  8.484E-01  1.200E+01  6.000E-02  1.283E+00
   1   13    7     6     5    1.3510E+01  6.5615E-04   1.3509E+01  0.000E+00  0.000E+00  0.000E+00  1.02675E+03  8.440E-01  1.200E+01  2.400E-02  9.113E-03
   1   14    9     7     1    1.5000E+02  1.3705E+00   1.4863E+02  0.000E+00  0.000E+00  0.000E+00  1.03987E+03  2.288E+00  5.529E+01  5.593E-01  8.168E-01
   1   13    8     7     2    1.4863E+02  1.9375E+00   1.4669E+02  0.000E+00  0.000E+00  0.000E+00  1.03478E+03  2.279E+00  5.525E+01  6.148E-01  1.051E+00
   1   13    7     7     3    1.4669E+02  1.6544E+00   1.4504E+02  0.000E+00  0.000E+00  0.000E+00  1.02969E+03  2.269E+00  5.521E+01  5.584E-01  9.876E-01
   1   13    6     8     1    1.5855E+02  1.0548E+00   1.5749E+02  0.000E+00  0.000E+00  0.000E+00  1.02475E+03  2.872E+00  4.165E+01  4.244E-01  8.284E-01
   1   13    5     8     2    1.5749E+02  3.2408E-01   1.5717E+02  0.000E+00  0.000E+00  0.000E+00  1.01849E+03  2.868E+00  4.158E+01  4.237E-01  2.549E-01
   1   13    4     8     3    1.5717E+02 -1.8832E+00   1.5905E+02  0.000E+00  0.000E+00  0.000E+00  1.01225E+03  2.873E+00  4.166E+01  4.245E+00 -1.479E-01
   1   13    3     8     4    1.5905E+02 -3.3992E+00   1.6245E+02  0.000E+00  0.000E+00  0.000E+00  1.00602E+03  2.891E+00  4.192E+01  4.272E+00 -2.653E-01
   1   13    2     8     5    1.6245E+02 -2.5310E+00   1.6498E+02  0.000E+00  0.000E+00  0.000E+00  9.99786E+02  2.911E+00  4.221E+01  4.301E+00 -1.962E-01
   1   13    1     8     6    1.6498E+02 -1.9722E+00   1.6695E+02  0.000E+00  0.000E+00  0.000E+00  9.94801E+02  2.926E+00  4.242E+01  2.594E+00 -2.534E-01
   1    8    6     9     1    0.0000E+00  0.0000E+00   0.0000E+00  0.000E+00  0.000E+00  0.000E+00  1.07875E+03  0.000E+00  4.000E+00  0.000E+00  1.000E+00
   1    8    5     9     2    0.0000E+00  0.0000E+00   0.0000E+00  0.000E+00  0.000E+00  0.000E+00  1.07825E+03  0.000E+00  4.000E+00  0.000E+00  1.000E+00





UNSATURATED ZONE PACKAGE VOLUMETRIC BUDGET FOR  TIME STEP    30 STRESS PERIOD   13
  ------------------------------------------------------------------------------



     CUMULATIVE VOLUMES      L**3       RATES FOR THIS TIME STEP      L**3/T
     ------------------                 ------------------------

           IN:                                      IN:
           ---                                      ---
        INFILTRATION =  1934650821.8525          INFILTRATION =           0.8475

          OUT:                                     OUT:
          ----                                     ----
              UZF ET =   432292991.9932                UZF ET =           0.7500
        UZF RECHARGE =  1068570926.9980          UZF RECHARGE =          12.9749

            IN - OUT =   433786902.8613              IN - OUT =         -12.8774

          STORAGE:                                 STORAGE:
          --------                                 --------
      STORAGE CHANGE =   433787295.2385        STORAGE CHANGE =         -12.8774

 PERCENT DISCREPANCY IS DIFFERENCE BETWEEN IN-OUT MINUS CHANGE IN STORAGE
 DIVIDED BY THE AVERAGE OF IN AND OUT TIMES 100

 PERCENT DISCREPANCY =          -0.00     PERCENT DISCREPANCY =           0.00






1
  VOLUMETRIC BUDGET FOR AGRICULTURAL FIELDS AT  END OF TIME STEP   30, STRESS PERIOD  13
  ------------------------------------------------------------------------------

     CUMULATIVE VOLUMES      L**3       RATES FOR THIS TIME STEP      L**3/T
     ------------------                 ------------------------

           IN:                                      IN:
           ---                                      ---
               AG WELLS  =  1630378752.0000                 AG WELLS  =           0.0000
      DIVERSION SEGMENTS =   277447584.0000        DIVERSION SEGMENTS =           0.0000
           GW IRRIGATION =           0.0000             GW IRRIGATION =           0.0000
           SW IRRIGATION =           0.0000             SW IRRIGATION =           0.0000
        SYSTEM LOSSES GW =           0.0000          SYSTEM LOSSES GW =           0.0000
        SYSTEM LOSSES SW =           0.0000          SYSTEM LOSSES SW =           0.0000

                TOTAL IN =  1907826304.0000                  TOTAL IN =           0.0000

          OUT:                                     OUT:
          ----                                     ----
               AG WELLS  =           0.0000                 AG WELLS  =           0.0000
      DIVERSION SEGMENTS =           0.0000        DIVERSION SEGMENTS =           0.0000
           GW IRRIGATION =  1630378752.0000             GW IRRIGATION =           0.0000
           SW IRRIGATION =   277452768.0000             SW IRRIGATION =           0.0000
        SYSTEM LOSSES GW =           0.0000          SYSTEM LOSSES GW =           0.0000
        SYSTEM LOSSES SW =           0.0000          SYSTEM LOSSES SW =           0.0000

               TOTAL OUT =  1907831552.0000                 TOTAL OUT =           0.0000

                IN - OUT =       -5248.0000                  IN - OUT =           0.0000

     PERCENT DISCREPANCY =          -0.00         PERCENT DISCREPANCY =           0.00



1
  VOLUMETRIC BUDGET FOR ENTIRE MODEL AT END OF TIME STEP   30, STRESS PERIOD  13
  ------------------------------------------------------------------------------

     CUMULATIVE VOLUMES      L**3       RATES FOR THIS TIME STEP      L**3/T
     ------------------                 ------------------------

           IN:                                      IN:
           ---                                      ---
             STORAGE     =  1888557824.0000               STORAGE     =           6.8025
       CONSTANT HEAD     =           0.0000         CONSTANT HEAD     =           0.0000
     HEAD DEP BOUNDS     =     9112551.0000       HEAD DEP BOUNDS     =           0.2881
      STREAM LEAKAGE     =   371350560.0000        STREAM LEAKAGE     =          11.4570
        UZF RECHARGE     =  1068570816.0000          UZF RECHARGE     =          12.9749
               GW ET     =           0.0000                 GW ET     =           0.0000
     SURFACE LEAKAGE     =           0.0000       SURFACE LEAKAGE     =           0.0000
           AG WELLS      =           0.0000             AG WELLS      =           0.0000

                TOTAL IN =  3337591808.0000                  TOTAL IN =          31.5226

          OUT:                                     OUT:
          ----                                     ----
             STORAGE     =  1373940096.0000               STORAGE     =          21.4450
       CONSTANT HEAD     =           0.0000         CONSTANT HEAD     =           0.0000
     HEAD DEP BOUNDS     =     9101858.0000       HEAD DEP BOUNDS     =           0.2873
      STREAM LEAKAGE     =   324128224.0000        STREAM LEAKAGE     =           9.7857
        UZF RECHARGE     =           0.0000          UZF RECHARGE     =           0.0000
               GW ET     =           0.0000                 GW ET     =           0.0000
     SURFACE LEAKAGE     =           0.0000       SURFACE LEAKAGE     =           0.0000
           AG WELLS      =  1630378752.0000             AG WELLS      =           0.0000

               TOTAL OUT =  3337548800.0000                 TOTAL OUT =          31.5179

                IN - OUT =       43008.0000                  IN - OUT =       4.6577E-03

     PERCENT DISCREPANCY =           0.00         PERCENT DISCREPANCY =           0.01






         TIME SUMMARY AT END OF TIME STEP   30 IN STRESS PERIOD   13
                    SECONDS     MINUTES      HOURS       DAYS        YEARS
                    -----------------------------------------------------------
   TIME STEP LENGTH  87667.      1461.1      24.352      1.0147     2.77799E-03
 STRESS PERIOD TIME 2.63000E+06  43833.      730.56      30.440     8.33397E-02
         TOTAL TIME 3.16463E+07 5.27439E+05  8790.6      366.28      1.0028    
1
1
                            STRESS PERIOD NO.   14, LENGTH =   2630000.    
                            -----------------------------------------------

                              NUMBER OF TIME STEPS =    30

                               MULTIPLIER FOR DELT =     1.000

                            INITIAL TIME STEP SIZE =   87666.66    

 REUSING NON-PARAMETER GHB CELLS FROM LAST STRESS PERIOD

      2 GHB CELLS

 REUSING STREAM SEGMENT DATA FROM LAST STRESS PERIOD



            AREAL INFILTRATION RATE
 READING ON UNIT   19 WITH FORMAT: (FREE)              

            1           2           3           4           5           6           7           8           9          10
 ........................................................................................................................
   1   1.0000E-10  2.0000E-10   0.000       0.000       0.000       0.000       0.000       0.000       0.000       0.000    
   2   2.0000E-10  1.0000E-10  2.0000E-10   0.000       0.000      8.0000E-10  8.0000E-10  5.0000E-10   0.000       0.000    
   3    0.000      5.0000E-10  1.0000E-10  1.0000E-10  8.0000E-10  8.0000E-10  5.0000E-10  5.0000E-10   0.000       0.000    
   4   8.0000E-10  5.0000E-10  1.0000E-10  1.0000E-10  1.0000E-10  1.0000E-10  1.0000E-10  1.0000E-10  2.0000E-10   0.000    
   5   8.0000E-10  5.0000E-10  1.0000E-10  1.0000E-10  1.0000E-10  1.0000E-10  1.0000E-10  1.0000E-10  1.0000E-10  1.0000E-10
   6   8.0000E-10  5.0000E-10  5.0000E-10  2.0000E-10  2.0000E-10  1.0000E-10  1.0000E-10  1.0000E-10  1.0000E-10  5.0000E-10
   7   8.0000E-10  5.0000E-10  5.0000E-10  2.0000E-10  2.0000E-10  1.0000E-10  1.0000E-10  2.0000E-10  2.0000E-10   0.000    
   8    0.000      5.0000E-10  5.0000E-10  2.0000E-10  2.0000E-10  1.0000E-10  1.0000E-10  2.0000E-10  5.0000E-10   0.000    
   9    0.000      5.0000E-10  5.0000E-10  2.0000E-10  2.0000E-10  1.0000E-10  1.0000E-10  2.0000E-10  5.0000E-10   0.000    
  10    0.000      5.0000E-10  5.0000E-10  2.0000E-10  2.0000E-10  1.0000E-10  1.0000E-10  2.0000E-10  5.0000E-10  8.0000E-10
  11    0.000      1.0000E-10  1.0000E-10  1.0000E-10  1.0000E-10  1.0000E-10  1.0000E-10  2.0000E-10  5.0000E-10   0.000    
  12   1.0000E-10  1.0000E-10  1.0000E-10  1.0000E-10  1.0000E-10  1.0000E-10  1.0000E-10  1.0000E-10  2.0000E-10   0.000    
  13   1.0000E-10  1.0000E-10  2.0000E-10  2.0000E-10  2.0000E-10  2.0000E-10  2.0000E-10  1.0000E-10  1.0000E-10   0.000    
  14    0.000      2.0000E-10  5.0000E-10  5.0000E-10  5.0000E-10  5.0000E-10  5.0000E-10  2.0000E-10  1.0000E-10   0.000    
  15    0.000       0.000      8.0000E-10  8.0000E-10  8.0000E-10  8.0000E-10   0.000       0.000       0.000       0.000    

                  ET RATE =  5.000000E-10

 USING ET EXTINCTION DEPTH FROM PREVIOUS STRESS PERIOD. CURRENT PERIOD IS:      14

 USING EXTINCTION WATER CONTENT FROM PREVIOUS STRESS PERIOD. CURRENT PERIOD IS:      14

 USING AIR ENTRY PRESSURE FROM PREVIOUS STRESS PERIOD. CURRENT PERIOD IS:      14

 USING ROOT PRESSURE HEAD FROM PREVIOUS STRESS PERIOD. CURRENT PERIOD IS:      14

 USING ROOT ACTIVITY FROM PREVIOUS STRESS PERIOD. CURRENT PERIOD IS:      14

 PROCESSING AG STRESS PERIOD DATA

 READING AG STRESS PERIOD DATA

 READING IRRIGATION SEGMENT

 READING IRRIGATION WELL

 READING SUPPLEMENTAL WELL

 END PROCESSING AG STRESS PERIOD DATA OPTIONS
 
 SOLVING FOR HEAD 
                                                   Max.-Head-Change                         Max.-Flux-Residual
  Residual-Control   Outer-Iter.   Inner-Iter.     Column Row Layer    Maximum-Head-Change  Column Row Layer    Maximum-Flux-Residual          L2-NORM 
          0                 1           2             3    7     1       0.3185275667E-01       4    7    1         0.1141739159E+01      0.3916483773E+01
          0                 2           2             4    7     1       0.6863741317E-02       4    7    1         0.3623308061E+00      0.7706884647E+00
          0                 3           2             4    7     1       0.2156127498E-02       4    7    1         0.1135524843E+00      0.2166869525E+00
          0                 4           2             4    7     1       0.6769738555E-03       4    7    1         0.3568620475E-01      0.6708908227E-01
          0                 5           2             4    7     1       0.2124515856E-03       4    7    1         0.1120249210E-01      0.2085683015E-01
          0                 6           1             4    7     1       0.6664188628E-04       4    7    1         0.3515211546E-02      0.6487329458E-02

    ------------------------------------------------
       NWT REQUIRED            6 OUTER ITERATIONS 
       AND A TOTAL OF         11 INNER ITERATIONS.
    ------------------------------------------------

 NO OUTPUT CONTROL FOR STRESS PERIOD   14   TIME STEP    1
 
 SOLVING FOR HEAD 
                                                   Max.-Head-Change                         Max.-Flux-Residual
  Residual-Control   Outer-Iter.   Inner-Iter.     Column Row Layer    Maximum-Head-Change  Column Row Layer    Maximum-Flux-Residual          L2-NORM 
          0                 1           2             3    7     1       0.3170770716E-01       4    7    1         0.1125279423E+01      0.3886798734E+01
          0                 2           2             4    7     1       0.6766561263E-02       4    7    1         0.3571657038E+00      0.7628540942E+00
          0                 3           2             4    7     1       0.2125988162E-02       4    7    1         0.1119484989E+00      0.2142738422E+00
          0                 4           2             4    7     1       0.6676509363E-03       4    7    1         0.3518900449E-01      0.6634597474E-01
          0                 5           2             4    7     1       0.2095746124E-03       4    7    1         0.1104879421E-01      0.2063063758E-01
          0                 6           1             4    7     1       0.6575602798E-04       4    7    1         0.3467808900E-02      0.6418947779E-02

    ------------------------------------------------
       NWT REQUIRED            6 OUTER ITERATIONS 
       AND A TOTAL OF         11 INNER ITERATIONS.
    ------------------------------------------------

 NO OUTPUT CONTROL FOR STRESS PERIOD   14   TIME STEP    2
 
 SOLVING FOR HEAD 
                                                   Max.-Head-Change                         Max.-Flux-Residual
  Residual-Control   Outer-Iter.   Inner-Iter.     Column Row Layer    Maximum-Head-Change  Column Row Layer    Maximum-Flux-Residual          L2-NORM 
          0                 1           2             3    7     1       0.3155670439E-01       4    7    1         0.1109276678E+01      0.3788340659E+01
          0                 2           2             4    7     1       0.6453431618E-02       4    7    1         0.3451608692E+00      0.7060842844E+00
          0                 3           2             4    7     1       0.1995918043E-02       4    7    1         0.1063165662E+00      0.1928531229E+00
          0                 4           2             4    7     1       0.6180871380E-03       4    7    1         0.3291419213E-01      0.5911527928E-01
          0                 5           2             4    7     1       0.1915811231E-03       4    7    1         0.1019484042E-01      0.1825817621E-01
          0                 6           1             4    7     1       0.5942027731E-04       4    7    1         0.3160605781E-02      0.5648779998E-02

    ------------------------------------------------
       NWT REQUIRED            6 OUTER ITERATIONS 
       AND A TOTAL OF         11 INNER ITERATIONS.
    ------------------------------------------------

 NO OUTPUT CONTROL FOR STRESS PERIOD   14   TIME STEP    3
 
 SOLVING FOR HEAD 
                                                   Max.-Head-Change                         Max.-Flux-Residual
  Residual-Control   Outer-Iter.   Inner-Iter.     Column Row Layer    Maximum-Head-Change  Column Row Layer    Maximum-Flux-Residual          L2-NORM 
          0                 1           2             3    7     1       0.3139313518E-01       4    5    1         0.1095808282E+01      0.3758544796E+01
          0                 2           2             4    7     1       0.6208397228E-02       4    7    1         0.3322668522E+00      0.6972466584E+00
          0                 3           2             4    7     1       0.1919302322E-02       4    7    1         0.1022594019E+00      0.1895250422E+00
          0                 4           2             4    6     1       0.5952437045E-03       4    7    1         0.3164823792E-01      0.5795572977E-01
          0                 5           2             4    6     1       0.1848704498E-03       4    6    1         0.9824145293E-02      0.1787662574E-01
          0                 6           1             4    6     1       0.5740822563E-04       4    6    1         0.3051105291E-02      0.5526572048E-02

    ------------------------------------------------
       NWT REQUIRED            6 OUTER ITERATIONS 
       AND A TOTAL OF         11 INNER ITERATIONS.
    ------------------------------------------------

 NO OUTPUT CONTROL FOR STRESS PERIOD   14   TIME STEP    4
 
 SOLVING FOR HEAD 
                                                   Max.-Head-Change                         Max.-Flux-Residual
  Residual-Control   Outer-Iter.   Inner-Iter.     Column Row Layer    Maximum-Head-Change  Column Row Layer    Maximum-Flux-Residual          L2-NORM 
          0                 1           2             3    7     1       0.3121805119E-01       4    5    1         0.1089687429E+01      0.3620515353E+01
          0                 2           2             4    6     1       0.6074437546E-02       4    6    1         0.3251664312E+00      0.6308423482E+00
          0                 3           2             4    6     1       0.1884673606E-02       4    6    1         0.1000873396E+00      0.1653756890E+00
          0                 4           2             4    6     1       0.5843981406E-03       4    6    1         0.3110263563E-01      0.4998696248E-01
          0                 5           2             4    6     1       0.1811116090E-03       4    6    1         0.9640717157E-02      0.1527788502E-01
          0                 6           1             4    6     1       0.5610065385E-04       4    6    1         0.2987437183E-02      0.4682363631E-02

    ------------------------------------------------
       NWT REQUIRED            6 OUTER ITERATIONS 
       AND A TOTAL OF         11 INNER ITERATIONS.
    ------------------------------------------------

 NO OUTPUT CONTROL FOR STRESS PERIOD   14   TIME STEP    5
 
 SOLVING FOR HEAD 
                                                   Max.-Head-Change                         Max.-Flux-Residual
  Residual-Control   Outer-Iter.   Inner-Iter.     Column Row Layer    Maximum-Head-Change  Column Row Layer    Maximum-Flux-Residual          L2-NORM 
          0                 1           2             3    7     1       0.3102804365E-01       4    5    1         0.1083454917E+01      0.3596374137E+01
          0                 2           2             4    6     1       0.5972076886E-02       4    6    1         0.3201068893E+00      0.6149161470E+00
          0                 3           2             4    6     1       0.1849582403E-02       4    6    1         0.9835957364E-01      0.1578959244E+00
          0                 4           2             4    6     1       0.5724060487E-03       4    6    1         0.3050982313E-01      0.4724958439E-01
          0                 5           2             4    6     1       0.1770407016E-03       4    6    1         0.9438349835E-02      0.1437143267E-01
          0                 6           1             4    6     1       0.5472970293E-04       4    6    1         0.2918854288E-02      0.4393840918E-02

    ------------------------------------------------
       NWT REQUIRED            6 OUTER ITERATIONS 
       AND A TOTAL OF         11 INNER ITERATIONS.
    ------------------------------------------------

 NO OUTPUT CONTROL FOR STRESS PERIOD   14   TIME STEP    6
 
 SOLVING FOR HEAD 
                                                   Max.-Head-Change                         Max.-Flux-Residual
  Residual-Control   Outer-Iter.   Inner-Iter.     Column Row Layer    Maximum-Head-Change  Column Row Layer    Maximum-Flux-Residual          L2-NORM 
          0                 1           2             3    7     1       0.3082270624E-01       4    5    1         0.1077091046E+01      0.3510373294E+01
          0                 2           2             4    6     1       0.5865706410E-02       4    6    1         0.3146850078E+00      0.5911581904E+00
          0                 3           2             4    6     1       0.1814883881E-02       4    6    1         0.9658054490E-01      0.1514004871E+00
          0                 4           2             4    6     1       0.5611864121E-03       4    6    1         0.2993070570E-01      0.4547950407E-01
          0                 5           2             4    6     1       0.1734371600E-03       4    6    1         0.9251466503E-02      0.1386670513E-01
          0                 6           1             4    6     1       0.5357839078E-04       4    6    1         0.2858920032E-02      0.4245356147E-02

    ------------------------------------------------
       NWT REQUIRED            6 OUTER ITERATIONS 
       AND A TOTAL OF         11 INNER ITERATIONS.
    ------------------------------------------------

 NO OUTPUT CONTROL FOR STRESS PERIOD   14   TIME STEP    7
 
 SOLVING FOR HEAD 
                                                   Max.-Head-Change                         Max.-Flux-Residual
  Residual-Control   Outer-Iter.   Inner-Iter.     Column Row Layer    Maximum-Head-Change  Column Row Layer    Maximum-Flux-Residual          L2-NORM 
          0                 1           2             3    7     1       0.3060537907E-01       4    5    1         0.1070566285E+01      0.3435842010E+01
          0                 2           2             4    6     1       0.5756824290E-02       4    6    1         0.3090744038E+00      0.5708765897E+00
          0                 3           2             4    6     1       0.1779796484E-02       4    6    1         0.9476557782E-01      0.1457711821E+00
          0                 4           2             4    6     1       0.5499554852E-03       4    6    1         0.2934669885E-01      0.4392213559E-01
          0                 5           2             4    6     1       0.1698609253E-03       4    6    1         0.9064825718E-02      0.1341783153E-01
          0                 6           1             4    6     1       0.5244426225E-04       4    6    1         0.2799557287E-02      0.4112357983E-02

    ------------------------------------------------
       NWT REQUIRED            6 OUTER ITERATIONS 
       AND A TOTAL OF         11 INNER ITERATIONS.
    ------------------------------------------------

 NO OUTPUT CONTROL FOR STRESS PERIOD   14   TIME STEP    8
 
 SOLVING FOR HEAD 
                                                   Max.-Head-Change                         Max.-Flux-Residual
  Residual-Control   Outer-Iter.   Inner-Iter.     Column Row Layer    Maximum-Head-Change  Column Row Layer    Maximum-Flux-Residual          L2-NORM 
          0                 1           2             3    7     1       0.3037851012E-01       4    5    1         0.1063868799E+01      0.3370701682E+01
          0                 2           2             4    6     1       0.5646886358E-02       4    6    1         0.3033614350E+00      0.5535075642E+00
          0                 3           2             4    6     1       0.1744707569E-02       4    6    1         0.9293780034E-01      0.1408784597E+00
          0                 4           2             4    6     1       0.5388616282E-03       4    6    1         0.2876394140E-01      0.4263042060E-01
          0                 5           2             4    6     1       0.1663743988E-03       4    6    1         0.8881050552E-02      0.1304957056E-01
          0                 6           1             4    6     1       0.5135282268E-04       4    6    1         0.2741865248E-02      0.4004892419E-02

    ------------------------------------------------
       NWT REQUIRED            6 OUTER ITERATIONS 
       AND A TOTAL OF         11 INNER ITERATIONS.
    ------------------------------------------------

 NO OUTPUT CONTROL FOR STRESS PERIOD   14   TIME STEP    9
 
 SOLVING FOR HEAD 
                                                   Max.-Head-Change                         Max.-Flux-Residual
  Residual-Control   Outer-Iter.   Inner-Iter.     Column Row Layer    Maximum-Head-Change  Column Row Layer    Maximum-Flux-Residual          L2-NORM 
          0                 1           2             3    7     1       0.3012202258E-01       4    5    1         0.1056995138E+01      0.3286065567E+01
          0                 2           2             4    6     1       0.5502818478E-02       4    6    1         0.2969155668E+00      0.5066995138E+00
          0                 3           2             4    6     1       0.1688277834E-02       4    6    1         0.9043861103E-01      0.1208208454E+00
          0                 4           2             4    6     1       0.5169752932E-03       4    6    1         0.2778270152E-01      0.3556133142E-01
          0                 5           2             4    6     1       0.1580791566E-03       4    6    1         0.8501649834E-02      0.1068970594E-01
          0                 6           1             4    6     1       0.4828514983E-04       4    6    1         0.2598818294E-02      0.3231659928E-02

    ------------------------------------------------
       NWT REQUIRED            6 OUTER ITERATIONS 
       AND A TOTAL OF         11 INNER ITERATIONS.
    ------------------------------------------------

 NO OUTPUT CONTROL FOR STRESS PERIOD   14   TIME STEP   10
 
 SOLVING FOR HEAD 
                                                   Max.-Head-Change                         Max.-Flux-Residual
  Residual-Control   Outer-Iter.   Inner-Iter.     Column Row Layer    Maximum-Head-Change  Column Row Layer    Maximum-Flux-Residual          L2-NORM 
          0                 1           2             3    7     1       0.2960428762E-01       4    5    1         0.1049862450E+01      0.3220227499E+01
          0                 2           2             4    6     1       0.5127247705E-02       4    6    1         0.2820153010E+00      0.4611606600E+00
          0                 3           2             4    6     1       0.1537375350E-02       4    6    1         0.8373369219E-01      0.9905529407E-01
          0                 4           2             4    6     1       0.4611647668E-03       4    6    1         0.2516079554E-01      0.2754947906E-01
          0                 5           2             4    6     1       0.1383854371E-03       4    6    1         0.7546150450E-02      0.7972351386E-02
          0                 6           1             4    6     1       0.4153945640E-04       4    6    1         0.2264687942E-02      0.2341481684E-02

    ------------------------------------------------
       NWT REQUIRED            6 OUTER ITERATIONS 
       AND A TOTAL OF         11 INNER ITERATIONS.
    ------------------------------------------------

 NO OUTPUT CONTROL FOR STRESS PERIOD   14   TIME STEP   11
 
 SOLVING FOR HEAD 
                                                   Max.-Head-Change                         Max.-Flux-Residual
  Residual-Control   Outer-Iter.   Inner-Iter.     Column Row Layer    Maximum-Head-Change  Column Row Layer    Maximum-Flux-Residual          L2-NORM 
          0                 1           2             3    7     1       0.2900987031E-01       4    5    1         0.1041784366E+01      0.3199942971E+01
          0                 2           2             4    6     1       0.4636366398E-02       4    6    1         0.2595411150E+00      0.4466547904E+00
          0                 3           2             4    6     1       0.1364268188E-02       4    6    1         0.7527030517E-01      0.9203256718E-01
          0                 4           2             4    6     1       0.4033666388E-03       4    6    1         0.2223028815E-01      0.2468609683E-01
          0                 5           2             4    6     1       0.1197104402E-03       4    6    1         0.6578146433E-02      0.6975716624E-02
          0                 6           1             4    6     1       0.3563174664E-04       4    6    1         0.1954034776E-02      0.2015250338E-02

    ------------------------------------------------
       NWT REQUIRED            6 OUTER ITERATIONS 
       AND A TOTAL OF         11 INNER ITERATIONS.
    ------------------------------------------------

 NO OUTPUT CONTROL FOR STRESS PERIOD   14   TIME STEP   12
 
 SOLVING FOR HEAD 
                                                   Max.-Head-Change                         Max.-Flux-Residual
  Residual-Control   Outer-Iter.   Inner-Iter.     Column Row Layer    Maximum-Head-Change  Column Row Layer    Maximum-Flux-Residual          L2-NORM 
          0                 1           2             3    7     1       0.2844294146E-01       4    5    1         0.1031945222E+01      0.3097344898E+01
          0                 2           2             4    6     1       0.4275460857E-02       4    6    1         0.2392519384E+00      0.4189843868E+00
          0                 3           2             4    6     1       0.1259476519E-02       4    6    1         0.6942413295E-01      0.8402630664E-01
          0                 4           2             4    6     1       0.3727096180E-03       4    6    1         0.2052859209E-01      0.2258309556E-01
          0                 5           2             4    6     1       0.1106875349E-03       4    6    1         0.6079429477E-02      0.6409109021E-02
          0                 6           1             4    6     1       0.3296348300E-04       4    6    1         0.1807043320E-02      0.1857351812E-02

    ------------------------------------------------
       NWT REQUIRED            6 OUTER ITERATIONS 
       AND A TOTAL OF         11 INNER ITERATIONS.
    ------------------------------------------------

 NO OUTPUT CONTROL FOR STRESS PERIOD   14   TIME STEP   13
 
 SOLVING FOR HEAD 
                                                   Max.-Head-Change                         Max.-Flux-Residual
  Residual-Control   Outer-Iter.   Inner-Iter.     Column Row Layer    Maximum-Head-Change  Column Row Layer    Maximum-Flux-Residual          L2-NORM 
          0                 1           2             3    7     1       0.2790161539E-01       4    5    1         0.1020670518E+01      0.3006728405E+01
          0                 2           2             4    6     1       0.3958228219E-02       4    6    1         0.2214020126E+00      0.3951170828E+00
          0                 3           2             4    6     1       0.1171115570E-02       4    6    1         0.6434482807E-01      0.7708844219E-01
          0                 4           2             4    6     1       0.3478709167E-03       4    6    1         0.1910870666E-01      0.2082344519E-01
          0                 5           1             4    6     1       0.1036575807E-03       4    6    1         0.5679476452E-02      0.5953473045E-02
          0                 6           1             4    6     1       0.3096315690E-04       4    6    1         0.1693657837E-02      0.1735401652E-02

    ------------------------------------------------
       NWT REQUIRED            6 OUTER ITERATIONS 
       AND A TOTAL OF         10 INNER ITERATIONS.
    ------------------------------------------------

 NO OUTPUT CONTROL FOR STRESS PERIOD   14   TIME STEP   14
 
 SOLVING FOR HEAD 
                                                   Max.-Head-Change                         Max.-Flux-Residual
  Residual-Control   Outer-Iter.   Inner-Iter.     Column Row Layer    Maximum-Head-Change  Column Row Layer    Maximum-Flux-Residual          L2-NORM 
          0                 1           2             3    7     1       0.2738418843E-01       4    5    1         0.1008246885E+01      0.2926410418E+01
          0                 2           2             4    6     1       0.3702779133E-02       4    6    1         0.2065020608E+00      0.3751600091E+00
          0                 3           2             4    6     1       0.1096786447E-02       4    6    1         0.6020251176E-01      0.7135845437E-01
          0                 4           2             4    6     1       0.3260986761E-03       4    6    1         0.1790128828E-01      0.1931844448E-01
          0                 5           1             4    6     1       0.9724123553E-04       4    6    1         0.5325181523E-02      0.5548854941E-02

    ------------------------------------------------
       NWT REQUIRED            5 OUTER ITERATIONS 
       AND A TOTAL OF          9 INNER ITERATIONS.
    ------------------------------------------------

 NO OUTPUT CONTROL FOR STRESS PERIOD   14   TIME STEP   15
 
 SOLVING FOR HEAD 
                                                   Max.-Head-Change                         Max.-Flux-Residual
  Residual-Control   Outer-Iter.   Inner-Iter.     Column Row Layer    Maximum-Head-Change  Column Row Layer    Maximum-Flux-Residual          L2-NORM 
          0                 1           2             3    7     1       0.2688845730E-01       4    5    1         0.9949491078E+00      0.2855497979E+01
          0                 2           2             4    6     1       0.3469428588E-02       4    6    1         0.1933794151E+00      0.3579183020E+00
          0                 3           2             4    6     1       0.1028973116E-02       4    6    1         0.5642262601E-01      0.6622059649E-01
          0                 4           2             4    6     1       0.3062410294E-03       4    6    1         0.1679979708E-01      0.1796191946E-01
          0                 5           1             4    6     1       0.9139066765E-04       4    6    1         0.5002071507E-02      0.5183079486E-02

    ------------------------------------------------
       NWT REQUIRED            5 OUTER ITERATIONS 
       AND A TOTAL OF          9 INNER ITERATIONS.
    ------------------------------------------------

 NO OUTPUT CONTROL FOR STRESS PERIOD   14   TIME STEP   16
 
 SOLVING FOR HEAD 
                                                   Max.-Head-Change                         Max.-Flux-Residual
  Residual-Control   Outer-Iter.   Inner-Iter.     Column Row Layer    Maximum-Head-Change  Column Row Layer    Maximum-Flux-Residual          L2-NORM 
          0                 1           2             3    7     1       0.2641328943E-01       4    5    1         0.9810039441E+00      0.2791553203E+01
          0                 2           2             4    6     1       0.3263523300E-02       4    6    1         0.1817871457E+00      0.3430220818E+00
          0                 3           2             4    6     1       0.9691923422E-03       4    6    1         0.5308849109E-01      0.6175649666E-01
          0                 4           2             4    6     1       0.2887496166E-03       4    6    1         0.1582899295E-01      0.1677926481E-01
          0                 5           1             4    6     1       0.8624071144E-04       4    6    1         0.4717519577E-02      0.4863583216E-02

    ------------------------------------------------
       NWT REQUIRED            5 OUTER ITERATIONS 
       AND A TOTAL OF          9 INNER ITERATIONS.
    ------------------------------------------------

 NO OUTPUT CONTROL FOR STRESS PERIOD   14   TIME STEP   17
 
 SOLVING FOR HEAD 
                                                   Max.-Head-Change                         Max.-Flux-Residual
  Residual-Control   Outer-Iter.   Inner-Iter.     Column Row Layer    Maximum-Head-Change  Column Row Layer    Maximum-Flux-Residual          L2-NORM 
          0                 1           2             3    7     1       0.2595724730E-01       4    5    1         0.9665811141E+00      0.2733574661E+01
          0                 2           2             4    6     1       0.3082024293E-02       4    6    1         0.1715561553E+00      0.3301675638E+00
          0                 3           2             4    6     1       0.9165532814E-03       4    6    1         0.5015071830E-01      0.5790069511E-01
          0                 4           2             4    6     1       0.2733616363E-03       4    6    1         0.1497437688E-01      0.1575348774E-01
          0                 5           1             4    6     1       0.8171345545E-04       4    6    1         0.4467241126E-02      0.4585653919E-02

    ------------------------------------------------
       NWT REQUIRED            5 OUTER ITERATIONS 
       AND A TOTAL OF          9 INNER ITERATIONS.
    ------------------------------------------------

 NO OUTPUT CONTROL FOR STRESS PERIOD   14   TIME STEP   18
 
 SOLVING FOR HEAD 
                                                   Max.-Head-Change                         Max.-Flux-Residual
  Residual-Control   Outer-Iter.   Inner-Iter.     Column Row Layer    Maximum-Head-Change  Column Row Layer    Maximum-Flux-Residual          L2-NORM 
          0                 1           2             3    7     1       0.2551902884E-01       4    5    1         0.9518263489E+00      0.2680725638E+01
          0                 2           2             4    6     1       0.2922014636E-02       4    6    1         0.1625243004E+00      0.3190788710E+00
          0                 3           2             4    6     1       0.8701998636E-03       4    6    1         0.4756188586E-01      0.5459033561E-01
          0                 4           2             4    6     1       0.2598243184E-03       4    6    1         0.1422201190E-01      0.1486816256E-01
          0                 5           1             4    6     1       0.7773391287E-04       4    6    1         0.4247114991E-02      0.4344731372E-02

    ------------------------------------------------
       NWT REQUIRED            5 OUTER ITERATIONS 
       AND A TOTAL OF          9 INNER ITERATIONS.
    ------------------------------------------------

 NO OUTPUT CONTROL FOR STRESS PERIOD   14   TIME STEP   19
 
 SOLVING FOR HEAD 
                                                   Max.-Head-Change                         Max.-Flux-Residual
  Residual-Control   Outer-Iter.   Inner-Iter.     Column Row Layer    Maximum-Head-Change  Column Row Layer    Maximum-Flux-Residual          L2-NORM 
          0                 1           2             3    7     1       0.2509768699E-01       4    5    1         0.9368636805E+00      0.2632301972E+01
          0                 2           2             4    6     1       0.2781113569E-02       4    6    1         0.1545590718E+00      0.3095243264E+00
          0                 3           2             4    6     1       0.8294343004E-03       4    6    1         0.4528330521E-01      0.5177138440E-01
          0                 4           2             4    6     1       0.2479318433E-03       4    6    1         0.1356054149E-01      0.1410938672E-01
          0                 5           1             4    6     1       0.7424107314E-04       4    6    1         0.4053786321E-02      0.4137002502E-02

    ------------------------------------------------
       NWT REQUIRED            5 OUTER ITERATIONS 
       AND A TOTAL OF          9 INNER ITERATIONS.
    ------------------------------------------------

 NO OUTPUT CONTROL FOR STRESS PERIOD   14   TIME STEP   20
 
 SOLVING FOR HEAD 
                                                   Max.-Head-Change                         Max.-Flux-Residual
  Residual-Control   Outer-Iter.   Inner-Iter.     Column Row Layer    Maximum-Head-Change  Column Row Layer    Maximum-Flux-Residual          L2-NORM 
          0                 1           2             3    7     1       0.2469213332E-01       4    5    1         0.9217914381E+00      0.2587725430E+01
          0                 2           2             4    6     1       0.2656925618E-02       4    6    1         0.1475369986E+00      0.3011650348E+00
          0                 3           2             4    6     1       0.7934923240E-03       4    6    1         0.4327505812E-01      0.4939577001E-01
          0                 4           2             4    6     1       0.2374437602E-03       4    6    1         0.1297728214E-01      0.1346374024E-01
          0                 5           1             4    6     1       0.7116011189E-04       4    6    1         0.3883277368E-02      0.3958228430E-02

    ------------------------------------------------
       NWT REQUIRED            5 OUTER ITERATIONS 
       AND A TOTAL OF          9 INNER ITERATIONS.
    ------------------------------------------------

 NO OUTPUT CONTROL FOR STRESS PERIOD   14   TIME STEP   21
 
 SOLVING FOR HEAD 
                                                   Max.-Head-Change                         Max.-Flux-Residual
  Residual-Control   Outer-Iter.   Inner-Iter.     Column Row Layer    Maximum-Head-Change  Column Row Layer    Maximum-Flux-Residual          L2-NORM 
          0                 1           2             3    7     1       0.2429745289E-01       4    5    1         0.9067157241E+00      0.2585511528E+01
          0                 2           2             4    6     1      -0.2643159538E-02       4    6    1        -0.1413675575E+00      0.2950350739E+00
          0                 3           2             4    6     1      -0.6171210850E-03       4    6    1        -0.3356535124E-01      0.4129321808E-01
          0                 4           2             4    6     1      -0.1441755878E-03       4    6    1        -0.7801693795E-02      0.8772993464E-02
          0                 5           1             4    6     1      -0.3370391473E-04       4    6    1        -0.1824299259E-02      0.2050706114E-02

    ------------------------------------------------
       NWT REQUIRED            5 OUTER ITERATIONS 
       AND A TOTAL OF          9 INNER ITERATIONS.
    ------------------------------------------------

 NO OUTPUT CONTROL FOR STRESS PERIOD   14   TIME STEP   22
 
 SOLVING FOR HEAD 
                                                   Max.-Head-Change                         Max.-Flux-Residual
  Residual-Control   Outer-Iter.   Inner-Iter.     Column Row Layer    Maximum-Head-Change  Column Row Layer    Maximum-Flux-Residual          L2-NORM 
          0                 1           2             3    7     1       0.2390748951E-01       4    6    1        -0.9182238257E+00      0.2628785667E+01
          0                 2           2             4    6     1      -0.3855295310E-02       4    6    1        -0.2075050161E+00      0.3285914048E+00
          0                 3           2             4    6     1      -0.8978725828E-03       4    6    1        -0.4885554663E-01      0.5441387622E-01
          0                 4           2             4    6     1      -0.2092520888E-03       4    6    1        -0.1134513583E-01      0.1206918037E-01
          0                 5           1             4    6     1      -0.4879967576E-04       4    6    1        -0.2645763824E-02      0.2820649613E-02

    ------------------------------------------------
       NWT REQUIRED            5 OUTER ITERATIONS 
       AND A TOTAL OF          9 INNER ITERATIONS.
    ------------------------------------------------

 NO OUTPUT CONTROL FOR STRESS PERIOD   14   TIME STEP   23
 
 SOLVING FOR HEAD 
                                                   Max.-Head-Change                         Max.-Flux-Residual
  Residual-Control   Outer-Iter.   Inner-Iter.     Column Row Layer    Maximum-Head-Change  Column Row Layer    Maximum-Flux-Residual          L2-NORM 
          0                 1           2             3    7     1       0.2352275534E-01       4    6    1        -0.8439535746E+00      0.2562372585E+01
          0                 2           2             4    6     1      -0.3541542236E-02       4    6    1        -0.1905132743E+00      0.3147159016E+00
          0                 3           2             4    6     1      -0.8249613181E-03       4    6    1        -0.4488771317E-01      0.5072761513E-01
          0                 4           2             4    6     1      -0.1922932882E-03       4    6    1        -0.1042422961E-01      0.1118665765E-01
          0                 5           1             4    6     1      -0.4485161617E-04       4    6    1        -0.2431463567E-02      0.2613742961E-02

    ------------------------------------------------
       NWT REQUIRED            5 OUTER ITERATIONS 
       AND A TOTAL OF          9 INNER ITERATIONS.
    ------------------------------------------------

 NO OUTPUT CONTROL FOR STRESS PERIOD   14   TIME STEP   24
 
 SOLVING FOR HEAD 
                                                   Max.-Head-Change                         Max.-Flux-Residual
  Residual-Control   Outer-Iter.   Inner-Iter.     Column Row Layer    Maximum-Head-Change  Column Row Layer    Maximum-Flux-Residual          L2-NORM 
          0                 1           2             3    7     1       0.2314416760E-01       4    5    1         0.7914912905E+00      0.2500905495E+01
          0                 2           2             4    6     1      -0.3250472032E-02       4    6    1        -0.1747590068E+00      0.3020984637E+00
          0                 3           2             4    6     1      -0.7572673475E-03       4    6    1        -0.4120583552E-01      0.4734167247E-01
          0                 4           2             4    6     1      -0.1765356874E-03       4    6    1        -0.9569017141E-02      0.1037206907E-01
          0                 5           1             4    6     1      -0.4118038111E-04       4    6    1        -0.2232295735E-02      0.2422483610E-02

    ------------------------------------------------
       NWT REQUIRED            5 OUTER ITERATIONS 
       AND A TOTAL OF          9 INNER ITERATIONS.
    ------------------------------------------------

 NO OUTPUT CONTROL FOR STRESS PERIOD   14   TIME STEP   25
 
 SOLVING FOR HEAD 
                                                   Max.-Head-Change                         Max.-Flux-Residual
  Residual-Control   Outer-Iter.   Inner-Iter.     Column Row Layer    Maximum-Head-Change  Column Row Layer    Maximum-Flux-Residual          L2-NORM 
          0                 1           2             3    7     1       0.2277227767E-01       4    5    1         0.7566174820E+00      0.2443907820E+01
          0                 2           2             4    6     1      -0.2980297435E-02       4    6    1        -0.1601439523E+00      0.2906321929E+00
          0                 3           2             4    6     1      -0.6943840528E-03       4    6    1        -0.3778745739E-01      0.4423700324E-01
          0                 4           2             4    6     1      -0.1618866863E-03       4    6    1        -0.8774395439E-02      0.9621374974E-02
          0                 5           1             4    6     1      -0.3776486245E-04       4    6    1        -0.2047097665E-02      0.2245990329E-02

    ------------------------------------------------
       NWT REQUIRED            5 OUTER ITERATIONS 
       AND A TOTAL OF          9 INNER ITERATIONS.
    ------------------------------------------------

 NO OUTPUT CONTROL FOR STRESS PERIOD   14   TIME STEP   26
 
 SOLVING FOR HEAD 
                                                   Max.-Head-Change                         Max.-Flux-Residual
  Residual-Control   Outer-Iter.   Inner-Iter.     Column Row Layer    Maximum-Head-Change  Column Row Layer    Maximum-Flux-Residual          L2-NORM 
          0                 1           2             3    7     1       0.2240707795E-01       4    5    1         0.7243398368E+00      0.2390941721E+01
          0                 2           2             4    6     1      -0.2729331999E-02       4    6    1        -0.1465756257E+00      0.2802155078E+00
          0                 3           2             4    6     1      -0.6359264399E-03       4    6    1        -0.3461136636E-01      0.4139542463E-01
          0                 4           2             4    6     1      -0.1482583130E-03       4    6    1        -0.8035527936E-02      0.8930723618E-02
          0                 5           1             4    6     1      -0.3458493914E-04       4    6    1        -0.1874763625E-02      0.2083420103E-02

    ------------------------------------------------
       NWT REQUIRED            5 OUTER ITERATIONS 
       AND A TOTAL OF          9 INNER ITERATIONS.
    ------------------------------------------------

 NO OUTPUT CONTROL FOR STRESS PERIOD   14   TIME STEP   27
 
 SOLVING FOR HEAD 
                                                   Max.-Head-Change                         Max.-Flux-Residual
  Residual-Control   Outer-Iter.   Inner-Iter.     Column Row Layer    Maximum-Head-Change  Column Row Layer    Maximum-Flux-Residual          L2-NORM 
          0                 1           2             3    7     1       0.2204874786E-01       4    5    1         0.6944690994E+00      0.2341633408E+01
          0                 2           2             4    6     1      -0.2495983634E-02       4    6    1        -0.1339666245E+00      0.2707572631E+00
          0                 3           2             4    6     1      -0.5815312378E-03       4    6    1        -0.3165754417E-01      0.3880099401E-01
          0                 4           2             4    6     1      -0.1355675983E-03       4    6    1        -0.7347851461E-02      0.8296813908E-02
          0                 5           1             4    6     1      -0.3162164288E-04       4    6    1        -0.1714250960E-02      0.1934052991E-02

    ------------------------------------------------
       NWT REQUIRED            5 OUTER ITERATIONS 
       AND A TOTAL OF          9 INNER ITERATIONS.
    ------------------------------------------------

 NO OUTPUT CONTROL FOR STRESS PERIOD   14   TIME STEP   28
 
 SOLVING FOR HEAD 
                                                   Max.-Head-Change                         Max.-Flux-Residual
  Residual-Control   Outer-Iter.   Inner-Iter.     Column Row Layer    Maximum-Head-Change  Column Row Layer    Maximum-Flux-Residual          L2-NORM 
          0                 1           2             3    7     1       0.2169789634E-01       4    5    1         0.6667965496E+00      0.2295632886E+01
          0                 2           2             4    6     1      -0.2278901012E-02       4    6    1        -0.1222428402E+00      0.2621759266E+00
          0                 3           2             4    6     1      -0.5308902156E-03       4    6    1        -0.2890899496E-01      0.3644093185E-01
          0                 4           2             4    6     1      -0.1237441687E-03       4    6    1        -0.6707494918E-02      0.7717198779E-02
          0                 5           1             4    6     1      -0.2885889166E-04       4    6    1        -0.1564675342E-02      0.1797372656E-02

    ------------------------------------------------
       NWT REQUIRED            5 OUTER ITERATIONS 
       AND A TOTAL OF          9 INNER ITERATIONS.
    ------------------------------------------------

 NO OUTPUT CONTROL FOR STRESS PERIOD   14   TIME STEP   29
 
 SOLVING FOR HEAD 
                                                   Max.-Head-Change                         Max.-Flux-Residual
  Residual-Control   Outer-Iter.   Inner-Iter.     Column Row Layer    Maximum-Head-Change  Column Row Layer    Maximum-Flux-Residual          L2-NORM 
          0                 1           2             3    7     1       0.2135410877E-01       4    5    1         0.6411523782E+00      0.2252640021E+01
          0                 2           2             3    7     1      -0.2084374414E-02       4    6    1        -0.1113330590E+00      0.2543953576E+00
          0                 3           2             4    6     1      -0.4837050475E-03       4    6    1        -0.2634934043E-01      0.3430273909E-01
          0                 4           2             4    6     1      -0.1127195264E-03       4    6    1        -0.6110704398E-02      0.7189498274E-02
          0                 5           1             4    6     1      -0.2628094286E-04       4    6    1        -0.1425174584E-02      0.1672870976E-02

    ------------------------------------------------
       NWT REQUIRED            5 OUTER ITERATIONS 
       AND A TOTAL OF          9 INNER ITERATIONS.
    ------------------------------------------------

 NO OUTPUT CONTROL FOR STRESS PERIOD   14   TIME STEP   30



 STREAM LISTING     PERIOD     14   STEP       30

 LAYER ROW COL. STREAM  RCH.  FLOW INTO     FLOW TO   FLOW OUT OF   OVRLND.     DIRECT     STREAM       STREAM     STREAM     STREAM   STREAMBED  STREAMBED
                SEG.NO.  NO.  STRM. RCH.    AQUIFER    STRM. RCH.    RUNOFF     PRECIP       ET          HEAD       DEPTH      WIDTH   CONDCTNC.   GRADIENT

   1    1    1     1     1    7.1251E+00  1.2038E-01   7.0047E+00  0.000E+00  0.000E+00  0.000E+00  1.09385E+03  8.024E-01  7.035E+00  3.166E-02  1.267E+00
   1    2    2     1     2    7.0047E+00  1.8492E-01   6.8198E+00  0.000E+00  0.000E+00  0.000E+00  1.08886E+03  7.976E-01  6.956E+00  4.869E-02  1.266E+00
   1    3    3     1     3    6.8198E+00  1.5635E-01   6.6635E+00  0.000E+00  0.000E+00  0.000E+00  1.08321E+03  7.929E-01  6.870E+00  4.122E-02  1.264E+00
   1    3    4     1     4    6.6635E+00  1.4286E-01   6.5206E+00  0.000E+00  0.000E+00  0.000E+00  1.07820E+03  7.886E-01  6.794E+00  3.771E-02  1.263E+00
   1    4    5     2     1    4.5206E+00  2.6715E-01   4.2534E+00  0.000E+00  0.000E+00  0.000E+00  1.07236E+03  4.251E-01  1.200E+01  7.800E-02  1.142E+00
   1    5    6     2     2    4.2534E+00  2.0467E-01   4.0488E+00  0.000E+00  0.000E+00  0.000E+00  1.06692E+03  4.112E-01  1.200E+01  6.000E-02  1.137E+00
   1    6    6     2     3    4.0488E+00  2.0394E-01   3.8448E+00  0.000E+00  0.000E+00  0.000E+00  1.06219E+03  3.989E-01  1.200E+01  6.000E-02  1.133E+00
   1    7    6     2     4    3.8448E+00  2.0319E-01   3.6417E+00  0.000E+00  0.000E+00  0.000E+00  1.05746E+03  3.865E-01  1.200E+01  6.000E-02  1.129E+00
   1    8    6     2     5    3.6417E+00  2.0242E-01   3.4392E+00  0.000E+00  0.000E+00  0.000E+00  1.05273E+03  3.737E-01  1.200E+01  6.000E-02  1.125E+00
   1    3    5     3     1    2.0000E+00  2.8252E-01   1.7175E+00  0.000E+00  0.000E+00  0.000E+00  1.07555E+03  1.909E+00  9.636E+00  7.227E-02  1.955E+00
   1    3    6     3     2    1.7175E+00  2.4905E-01   1.4684E+00  0.000E+00  0.000E+00  0.000E+00  1.07264E+03  1.727E+00  8.909E+00  6.682E-02  1.864E+00
   1    3    7     3     3    1.4684E+00  1.9718E-01   1.2712E+00  0.000E+00  0.000E+00  0.000E+00  1.06987E+03  1.555E+00  8.218E+00  5.547E-02  1.777E+00
   1    4    8     3     4    1.2712E+00  2.2567E-01   1.0456E+00  0.000E+00  0.000E+00  0.000E+00  1.06682E+03  1.364E+00  7.455E+00  6.709E-02  1.682E+00
   1    5    8     3     5    1.0456E+00  1.5790E-01   8.8768E-01  0.000E+00  0.000E+00  0.000E+00  1.06362E+03  1.164E+00  6.655E+00  4.991E-02  1.582E+00
   1    6    8     3     6    8.8768E-01  5.5980E-02   8.3170E-01  0.000E+00  0.000E+00  0.000E+00  1.06158E+03  1.036E+00  6.145E+00  1.844E-02  1.518E+00
   1    5   10     4     1    1.0000E+01  9.0919E-02   9.9091E+00  0.000E+00  0.000E+00  0.000E+00  1.07836E+03  6.368E-01  1.000E+01  2.500E-02  1.212E+00
   1    5    9     4     2    9.9091E+00  1.8158E-01   9.7275E+00  0.000E+00  0.000E+00  0.000E+00  1.07154E+03  6.315E-01  1.000E+01  5.000E-02  1.211E+00
   1    6    8     4     3    9.7275E+00  1.2689E-01   9.6006E+00  0.000E+00  0.000E+00  0.000E+00  1.06381E+03  6.256E-01  1.000E+01  3.500E-02  1.209E+00
   1    6    8     5     1    1.0432E+01  2.2686E-01   1.0205E+01  0.000E+00  0.000E+00  0.000E+00  1.05868E+03  6.790E-01  1.542E+01  6.166E-02  1.226E+00
   1    7    7     5     2    1.0205E+01  2.7894E-01   9.9265E+00  0.000E+00  0.000E+00  0.000E+00  1.05417E+03  6.732E-01  1.519E+01  7.594E-02  1.224E+00
   1    8    7     5     3    9.9265E+00  1.9221E-01   9.7343E+00  0.000E+00  0.000E+00  0.000E+00  1.04992E+03  6.676E-01  1.497E+01  5.241E-02  1.223E+00
   1    8    6     5     4    9.7343E+00  1.3577E-01   9.5985E+00  0.000E+00  0.000E+00  0.000E+00  1.04691E+03  6.637E-01  1.482E+01  3.706E-02  1.221E+00
   1    9    6     6     1    1.3038E+01  2.2931E-01   1.2808E+01  0.000E+00  0.000E+00  0.000E+00  1.04355E+03  8.218E-01  1.200E+01  6.000E-02  1.274E+00
   1   10    7     6     2    1.2808E+01  2.2878E-01   1.2580E+01  0.000E+00  0.000E+00  0.000E+00  1.03899E+03  8.131E-01  1.200E+01  6.000E-02  1.271E+00
   1   11    7     6     3    1.2580E+01  2.2826E-01   1.2351E+01  0.000E+00  0.000E+00  0.000E+00  1.03444E+03  8.043E-01  1.200E+01  6.000E-02  1.268E+00
   1   12    7     6     4    1.2351E+01  2.2772E-01   1.2124E+01  0.000E+00  0.000E+00  0.000E+00  1.02989E+03  7.954E-01  1.200E+01  6.000E-02  1.265E+00
   1   13    7     6     5    1.2124E+01  3.4106E-04   1.2123E+01  0.000E+00  0.000E+00  0.000E+00  1.02670E+03  7.909E-01  1.200E+01  2.400E-02  4.737E-03
   1   14    9     7     1    1.5000E+02  1.3713E+00   1.4863E+02  0.000E+00  0.000E+00  0.000E+00  1.03987E+03  2.288E+00  5.529E+01  5.593E-01  8.173E-01
   1   13    8     7     2    1.4863E+02  1.9463E+00   1.4668E+02  0.000E+00  0.000E+00  0.000E+00  1.03478E+03  2.279E+00  5.525E+01  6.147E-01  1.055E+00
   1   13    7     7     3    1.4668E+02  1.6766E+00   1.4501E+02  0.000E+00  0.000E+00  0.000E+00  1.02969E+03  2.269E+00  5.521E+01  5.584E-01  1.001E+00
   1   13    6     8     1    1.5713E+02  1.0687E+00   1.5606E+02  0.000E+00  0.000E+00  0.000E+00  1.02474E+03  2.863E+00  4.151E+01  4.230E-01  8.421E-01
   1   13    5     8     2    1.5606E+02  3.3657E-01   1.5572E+02  0.000E+00  0.000E+00  0.000E+00  1.01848E+03  2.858E+00  4.144E+01  4.223E-01  2.657E-01
   1   13    4     8     3    1.5572E+02 -1.8442E+00   1.5757E+02  0.000E+00  0.000E+00  0.000E+00  1.01224E+03  2.863E+00  4.151E+01  4.230E+00 -1.453E-01
   1   13    3     8     4    1.5757E+02 -3.3734E+00   1.6094E+02  0.000E+00  0.000E+00  0.000E+00  1.00601E+03  2.881E+00  4.177E+01  4.257E+00 -2.642E-01
   1   13    2     8     5    1.6094E+02 -2.5263E+00   1.6347E+02  0.000E+00  0.000E+00  0.000E+00  9.99776E+02  2.901E+00  4.206E+01  4.286E+00 -1.965E-01
   1   13    1     8     6    1.6347E+02 -1.9726E+00   1.6544E+02  0.000E+00  0.000E+00  0.000E+00  9.94791E+02  2.916E+00  4.228E+01  2.585E+00 -2.544E-01
   1    8    6     9     1    0.0000E+00  0.0000E+00   0.0000E+00  0.000E+00  0.000E+00  0.000E+00  1.07875E+03  0.000E+00  4.000E+00  0.000E+00  1.000E+00
   1    8    5     9     2    0.0000E+00  0.0000E+00   0.0000E+00  0.000E+00  0.000E+00  0.000E+00  1.07825E+03  0.000E+00  4.000E+00  0.000E+00  1.000E+00





UNSATURATED ZONE PACKAGE VOLUMETRIC BUDGET FOR  TIME STEP    30 STRESS PERIOD   14
  ------------------------------------------------------------------------------



     CUMULATIVE VOLUMES      L**3       RATES FOR THIS TIME STEP      L**3/T
     ------------------                 ------------------------

           IN:                                      IN:
           ---                                      ---
        INFILTRATION =  1936879746.7253          INFILTRATION =           0.8475

          OUT:                                     OUT:
          ----                                     ----
              UZF ET =   434265491.8690                UZF ET =           0.7500
        UZF RECHARGE =  1083615324.1113          UZF RECHARGE =           2.6533

            IN - OUT =   418998930.7450              IN - OUT =          -2.5558

          STORAGE:                                 STORAGE:
          --------                                 --------
      STORAGE CHANGE =   418999323.1215        STORAGE CHANGE =          -2.5558

 PERCENT DISCREPANCY IS DIFFERENCE BETWEEN IN-OUT MINUS CHANGE IN STORAGE
 DIVIDED BY THE AVERAGE OF IN AND OUT TIMES 100

 PERCENT DISCREPANCY =          -0.00     PERCENT DISCREPANCY =           0.00






1
  VOLUMETRIC BUDGET FOR AGRICULTURAL FIELDS AT  END OF TIME STEP   30, STRESS PERIOD  14
  ------------------------------------------------------------------------------

     CUMULATIVE VOLUMES      L**3       RATES FOR THIS TIME STEP      L**3/T
     ------------------                 ------------------------

           IN:                                      IN:
           ---                                      ---
               AG WELLS  =  1630378752.0000                 AG WELLS  =           0.0000
      DIVERSION SEGMENTS =   277447584.0000        DIVERSION SEGMENTS =           0.0000
           GW IRRIGATION =           0.0000             GW IRRIGATION =           0.0000
           SW IRRIGATION =           0.0000             SW IRRIGATION =           0.0000
        SYSTEM LOSSES GW =           0.0000          SYSTEM LOSSES GW =           0.0000
        SYSTEM LOSSES SW =           0.0000          SYSTEM LOSSES SW =           0.0000

                TOTAL IN =  1907826304.0000                  TOTAL IN =           0.0000

          OUT:                                     OUT:
          ----                                     ----
               AG WELLS  =           0.0000                 AG WELLS  =           0.0000
      DIVERSION SEGMENTS =           0.0000        DIVERSION SEGMENTS =           0.0000
           GW IRRIGATION =  1630378752.0000             GW IRRIGATION =           0.0000
           SW IRRIGATION =   277452768.0000             SW IRRIGATION =           0.0000
        SYSTEM LOSSES GW =           0.0000          SYSTEM LOSSES GW =           0.0000
        SYSTEM LOSSES SW =           0.0000          SYSTEM LOSSES SW =           0.0000

               TOTAL OUT =  1907831552.0000                 TOTAL OUT =           0.0000

                IN - OUT =       -5248.0000                  IN - OUT =           0.0000

     PERCENT DISCREPANCY =          -0.00         PERCENT DISCREPANCY =           0.00



1
  VOLUMETRIC BUDGET FOR ENTIRE MODEL AT END OF TIME STEP   30, STRESS PERIOD  14
  ------------------------------------------------------------------------------

     CUMULATIVE VOLUMES      L**3       RATES FOR THIS TIME STEP      L**3/T
     ------------------                 ------------------------

           IN:                                      IN:
           ---                                      ---
             STORAGE     =  1906570496.0000               STORAGE     =           5.9338
       CONSTANT HEAD     =           0.0000         CONSTANT HEAD     =           0.0000
     HEAD DEP BOUNDS     =     9870380.0000       HEAD DEP BOUNDS     =           0.2882
      STREAM LEAKAGE     =   401254656.0000        STREAM LEAKAGE     =          11.4012
        UZF RECHARGE     =  1083615232.0000          UZF RECHARGE     =           2.6533
               GW ET     =           0.0000                 GW ET     =           0.0000
     SURFACE LEAKAGE     =           0.0000       SURFACE LEAKAGE     =           0.0000
           AG WELLS      =           0.0000             AG WELLS      =           0.0000

                TOTAL IN =  3401310720.0000                  TOTAL IN =          20.2765

          OUT:                                     OUT:
          ----                                     ----
             STORAGE     =  1411166976.0000               STORAGE     =          10.2731
       CONSTANT HEAD     =           0.0000         CONSTANT HEAD     =           0.0000
     HEAD DEP BOUNDS     =     9857081.0000       HEAD DEP BOUNDS     =           0.2870
      STREAM LEAKAGE     =   349861760.0000        STREAM LEAKAGE     =           9.7165
        UZF RECHARGE     =           0.0000          UZF RECHARGE     =           0.0000
               GW ET     =           0.0000                 GW ET     =           0.0000
     SURFACE LEAKAGE     =           0.0000       SURFACE LEAKAGE     =           0.0000
           AG WELLS      =  1630378752.0000             AG WELLS      =           0.0000

               TOTAL OUT =  3401264640.0000                 TOTAL OUT =          20.2766

                IN - OUT =       46080.0000                  IN - OUT =      -1.7166E-04

     PERCENT DISCREPANCY =           0.00         PERCENT DISCREPANCY =          -0.00






         TIME SUMMARY AT END OF TIME STEP   30 IN STRESS PERIOD   14
                    SECONDS     MINUTES      HOURS       DAYS        YEARS
                    -----------------------------------------------------------
   TIME STEP LENGTH  87667.      1461.1      24.352      1.0147     2.77799E-03
 STRESS PERIOD TIME 2.63000E+06  43833.      730.56      30.440     8.33397E-02
         TOTAL TIME 3.42763E+07 5.71272E+05  9521.2      396.72      1.0862    
1
1
                            STRESS PERIOD NO.   15, LENGTH =   2630000.    
                            -----------------------------------------------

                              NUMBER OF TIME STEPS =    30

                               MULTIPLIER FOR DELT =     1.000

                            INITIAL TIME STEP SIZE =   87666.66    

 REUSING NON-PARAMETER GHB CELLS FROM LAST STRESS PERIOD

      2 GHB CELLS

 REUSING STREAM SEGMENT DATA FROM LAST STRESS PERIOD



            AREAL INFILTRATION RATE
 READING ON UNIT   19 WITH FORMAT: (FREE)              

            1           2           3           4           5           6           7           8           9          10
 ........................................................................................................................
   1   1.0000E-10  2.0000E-10   0.000       0.000       0.000       0.000       0.000       0.000       0.000       0.000    
   2   2.0000E-10  1.0000E-10  2.0000E-10   0.000       0.000      8.0000E-10  8.0000E-10  5.0000E-10   0.000       0.000    
   3    0.000      5.0000E-10  1.0000E-10  1.0000E-10  8.0000E-10  8.0000E-10  5.0000E-10  5.0000E-10   0.000       0.000    
   4   8.0000E-10  5.0000E-10  1.0000E-10  1.0000E-10  1.0000E-10  1.0000E-10  1.0000E-10  1.0000E-10  2.0000E-10   0.000    
   5   8.0000E-10  5.0000E-10  1.0000E-10  1.0000E-10  1.0000E-10  1.0000E-10  1.0000E-10  1.0000E-10  1.0000E-10  1.0000E-10
   6   8.0000E-10  5.0000E-10  5.0000E-10  2.0000E-10  2.0000E-10  1.0000E-10  1.0000E-10  1.0000E-10  1.0000E-10  5.0000E-10
   7   8.0000E-10  5.0000E-10  5.0000E-10  2.0000E-10  2.0000E-10  1.0000E-10  1.0000E-10  2.0000E-10  2.0000E-10   0.000    
   8    0.000      5.0000E-10  5.0000E-10  2.0000E-10  2.0000E-10  1.0000E-10  1.0000E-10  2.0000E-10  5.0000E-10   0.000    
   9    0.000      5.0000E-10  5.0000E-10  2.0000E-10  2.0000E-10  1.0000E-10  1.0000E-10  2.0000E-10  5.0000E-10   0.000    
  10    0.000      5.0000E-10  5.0000E-10  2.0000E-10  2.0000E-10  1.0000E-10  1.0000E-10  2.0000E-10  5.0000E-10  8.0000E-10
  11    0.000      1.0000E-10  1.0000E-10  1.0000E-10  1.0000E-10  1.0000E-10  1.0000E-10  2.0000E-10  5.0000E-10   0.000    
  12   1.0000E-10  1.0000E-10  1.0000E-10  1.0000E-10  1.0000E-10  1.0000E-10  1.0000E-10  1.0000E-10  2.0000E-10   0.000    
  13   1.0000E-10  1.0000E-10  2.0000E-10  2.0000E-10  2.0000E-10  2.0000E-10  2.0000E-10  1.0000E-10  1.0000E-10   0.000    
  14    0.000      2.0000E-10  5.0000E-10  5.0000E-10  5.0000E-10  5.0000E-10  5.0000E-10  2.0000E-10  1.0000E-10   0.000    
  15    0.000       0.000      8.0000E-10  8.0000E-10  8.0000E-10  8.0000E-10   0.000       0.000       0.000       0.000    

                  ET RATE =  5.000000E-10

 USING ET EXTINCTION DEPTH FROM PREVIOUS STRESS PERIOD. CURRENT PERIOD IS:      15

 USING EXTINCTION WATER CONTENT FROM PREVIOUS STRESS PERIOD. CURRENT PERIOD IS:      15

 USING AIR ENTRY PRESSURE FROM PREVIOUS STRESS PERIOD. CURRENT PERIOD IS:      15

 USING ROOT PRESSURE HEAD FROM PREVIOUS STRESS PERIOD. CURRENT PERIOD IS:      15

 USING ROOT ACTIVITY FROM PREVIOUS STRESS PERIOD. CURRENT PERIOD IS:      15

 PROCESSING AG STRESS PERIOD DATA

 READING AG STRESS PERIOD DATA

 READING IRRIGATION SEGMENT

 READING IRRIGATION WELL

 READING SUPPLEMENTAL WELL

 END PROCESSING AG STRESS PERIOD DATA OPTIONS
 
 SOLVING FOR HEAD 
                                                   Max.-Head-Change                         Max.-Flux-Residual
  Residual-Control   Outer-Iter.   Inner-Iter.     Column Row Layer    Maximum-Head-Change  Column Row Layer    Maximum-Flux-Residual          L2-NORM 
          0                 1           2             3    7     1       0.2101766793E-01       4    5    1         0.6173882767E+00      0.2212382269E+01
          0                 2           2             3    7     1      -0.2051101171E-02       4    6    1        -0.1011726102E+00      0.2473458306E+00
          0                 3           2             4    6     1      -0.4397043917E-03       4    6    1        -0.2396339086E-01      0.3237555751E-01
          0                 4           1             4    6     1      -0.1021470446E-03       4    6    1        -0.5546970332E-02      0.6706525986E-02
          0                 5           1             4    6     1      -0.2375709421E-04       4    6    1        -0.1290416415E-02      0.1556930698E-02

    ------------------------------------------------
       NWT REQUIRED            5 OUTER ITERATIONS 
       AND A TOTAL OF          8 INNER ITERATIONS.
    ------------------------------------------------

 NO OUTPUT CONTROL FOR STRESS PERIOD   15   TIME STEP    1
 
 SOLVING FOR HEAD 
                                                   Max.-Head-Change                         Max.-Flux-Residual
  Residual-Control   Outer-Iter.   Inner-Iter.     Column Row Layer    Maximum-Head-Change  Column Row Layer    Maximum-Flux-Residual          L2-NORM 
          0                 1           2             3    7     1       0.2068833450E-01       4    5    1         0.5953538158E+00      0.2174959323E+01
          0                 2           2             3    7     1      -0.2018500678E-02       4    6    1        -0.9147614386E-01      0.2409092088E+00
          0                 3           2             4    6     1      -0.3961419702E-03       4    6    1        -0.2163596263E-01      0.3057784033E-01
          0                 4           1             4    6     1      -0.9204341858E-04       4    6    1        -0.4999478786E-02      0.6254617058E-02

    ------------------------------------------------
       NWT REQUIRED            4 OUTER ITERATIONS 
       AND A TOTAL OF          7 INNER ITERATIONS.
    ------------------------------------------------

 NO OUTPUT CONTROL FOR STRESS PERIOD   15   TIME STEP    2
 
 SOLVING FOR HEAD 
                                                   Max.-Head-Change                         Max.-Flux-Residual
  Residual-Control   Outer-Iter.   Inner-Iter.     Column Row Layer    Maximum-Head-Change  Column Row Layer    Maximum-Flux-Residual          L2-NORM 
          0                 1           2             3    7     1       0.2036664344E-01       4    5    1         0.5749483813E+00      0.2139603767E+01
          0                 2           2             3    7     1      -0.1986630825E-02       4    6    1        -0.8247360576E-01      0.2351090819E+00
          0                 3           2             4    6     1      -0.3572220787E-03       4    6    1        -0.1952446837E-01      0.2902444372E-01
          0                 4           1             4    6     1      -0.8295150261E-04       4    6    1        -0.4507336913E-02      0.5867924330E-02

    ------------------------------------------------
       NWT REQUIRED            4 OUTER ITERATIONS 
       AND A TOTAL OF          7 INNER ITERATIONS.
    ------------------------------------------------

 NO OUTPUT CONTROL FOR STRESS PERIOD   15   TIME STEP    3
 
 SOLVING FOR HEAD 
                                                   Max.-Head-Change                         Max.-Flux-Residual
  Residual-Control   Outer-Iter.   Inner-Iter.     Column Row Layer    Maximum-Head-Change  Column Row Layer    Maximum-Flux-Residual          L2-NORM 
          0                 1           2             3    7     1       0.2005246171E-01       4    5    1         0.5560228058E+00      0.2106098721E+01
          0                 2           2             3    7     1      -0.1955483089E-02       4    6    1        -0.7409224257E-01      0.2298240970E+00
          0                 3           2             4    6     1      -0.3209399028E-03       4    6    1        -0.1755710789E-01      0.2765984083E-01
          0                 4           1             4    6     1      -0.7446904710E-04       4    6    1        -0.4048364259E-02      0.5528406611E-02

    ------------------------------------------------
       NWT REQUIRED            4 OUTER ITERATIONS 
       AND A TOTAL OF          7 INNER ITERATIONS.
    ------------------------------------------------

 NO OUTPUT CONTROL FOR STRESS PERIOD   15   TIME STEP    4
 
 SOLVING FOR HEAD 
                                                   Max.-Head-Change                         Max.-Flux-Residual
  Residual-Control   Outer-Iter.   Inner-Iter.     Column Row Layer    Maximum-Head-Change  Column Row Layer    Maximum-Flux-Residual          L2-NORM 
          0                 1           2             3    7     1       0.1974522670E-01       4    5    1         0.5384731491E+00      0.2074538698E+01
          0                 2           2             3    7     1      -0.1925007884E-02       4    6    1        -0.6628003343E-01      0.2248269743E+00
          0                 3           2             4    6     1      -0.2871133147E-03       4    6    1        -0.1572304958E-01      0.2643978184E-01
          0                 4           1             4    6     1      -0.6655982760E-04       4    6    1        -0.3620439561E-02      0.5228400230E-02

    ------------------------------------------------
       NWT REQUIRED            4 OUTER ITERATIONS 
       AND A TOTAL OF          7 INNER ITERATIONS.
    ------------------------------------------------

 NO OUTPUT CONTROL FOR STRESS PERIOD   15   TIME STEP    5
 
 SOLVING FOR HEAD 
                                                   Max.-Head-Change                         Max.-Flux-Residual
  Residual-Control   Outer-Iter.   Inner-Iter.     Column Row Layer    Maximum-Head-Change  Column Row Layer    Maximum-Flux-Residual          L2-NORM 
          0                 1           2             3    7     1       0.1944532952E-01       4    5    1         0.5221751453E+00      0.2044917397E+01
          0                 2           2             3    7     1      -0.1895244260E-02       4    6    1        -0.5899892404E-01      0.2208395601E+00
          0                 3           2             4    6     1      -0.2555074815E-03       4    6    1        -0.1401117677E-01      0.2544931870E-01
          0                 4           1             4    6     1      -0.5915861626E-04       4    6    1        -0.3220430608E-02      0.4984071388E-02

    ------------------------------------------------
       NWT REQUIRED            4 OUTER ITERATIONS 
       AND A TOTAL OF          7 INNER ITERATIONS.
    ------------------------------------------------

 NO OUTPUT CONTROL FOR STRESS PERIOD   15   TIME STEP    6
 
 SOLVING FOR HEAD 
                                                   Max.-Head-Change                         Max.-Flux-Residual
  Residual-Control   Outer-Iter.   Inner-Iter.     Column Row Layer    Maximum-Head-Change  Column Row Layer    Maximum-Flux-Residual          L2-NORM 
          0                 1           2             3    7     1       0.1915266175E-01       4    5    1         0.5070512079E+00      0.2017015171E+01
          0                 2           2             3    7     1      -0.1866186237E-02       5    8    1         0.5439787485E-01      0.2170153740E+00
          0                 3           2             5    8     1       0.2272427272E-03       4    6    1        -0.1241414354E-01      0.2458661533E-01
          0                 4           1             5    8     1       0.5293751774E-04       5    8    1         0.2876293965E-02      0.4775947694E-02

    ------------------------------------------------
       NWT REQUIRED            4 OUTER ITERATIONS 
       AND A TOTAL OF          7 INNER ITERATIONS.
    ------------------------------------------------

 NO OUTPUT CONTROL FOR STRESS PERIOD   15   TIME STEP    7
 
 SOLVING FOR HEAD 
                                                   Max.-Head-Change                         Max.-Flux-Residual
  Residual-Control   Outer-Iter.   Inner-Iter.     Column Row Layer    Maximum-Head-Change  Column Row Layer    Maximum-Flux-Residual          L2-NORM 
          0                 1           2             3    7     1       0.1886685011E-01       3    7    1         0.4982566317E+00      0.1990583492E+01
          0                 2           2             3    7     1      -0.1837799583E-02       5    8    1         0.5435468844E-01      0.2135770854E+00
          0                 3           2             5    8     1       0.2274293436E-03       5    8    1         0.1224130888E-01      0.2387264189E-01
          0                 4           1             5    8     1       0.5302410131E-04       5    8    1         0.2879287463E-02      0.4608500513E-02

    ------------------------------------------------
       NWT REQUIRED            4 OUTER ITERATIONS 
       AND A TOTAL OF          7 INNER ITERATIONS.
    ------------------------------------------------

 NO OUTPUT CONTROL FOR STRESS PERIOD   15   TIME STEP    8
 
 SOLVING FOR HEAD 
                                                   Max.-Head-Change                         Max.-Flux-Residual
  Residual-Control   Outer-Iter.   Inner-Iter.     Column Row Layer    Maximum-Head-Change  Column Row Layer    Maximum-Flux-Residual          L2-NORM 
          0                 1           2             3    7     1       0.1858800661E-01       3    7    1         0.4908418172E+00      0.1965515314E+01
          0                 2           2             3    7     1      -0.1810096296E-02       5    8    1         0.5431152814E-01      0.2104881690E+00
          0                 3           2             5    8     1       0.2276054270E-03       5    8    1         0.1224538360E-01      0.2329603022E-01
          0                 4           1             5    8     1       0.5310702588E-04       5    8    1         0.2882129679E-02      0.4479231396E-02

    ------------------------------------------------
       NWT REQUIRED            4 OUTER ITERATIONS 
       AND A TOTAL OF          7 INNER ITERATIONS.
    ------------------------------------------------

 NO OUTPUT CONTROL FOR STRESS PERIOD   15   TIME STEP    9
 
 SOLVING FOR HEAD 
                                                   Max.-Head-Change                         Max.-Flux-Residual
  Residual-Control   Outer-Iter.   Inner-Iter.     Column Row Layer    Maximum-Head-Change  Column Row Layer    Maximum-Flux-Residual          L2-NORM 
          0                 1           2             3    7     1       0.1831598455E-01       3    7    1         0.4836074325E+00      0.1941706643E+01
          0                 2           2             3    7     1      -0.1783064609E-02       5    8    1         0.5427018489E-01      0.2077159685E+00
          0                 3           2             5    8     1       0.2277790943E-03       5    8    1         0.1224948183E-01      0.2284591047E-01
          0                 4           1             5    8     1       0.5318822543E-04       5    8    1         0.2884924066E-02      0.4385522337E-02

    ------------------------------------------------
       NWT REQUIRED            4 OUTER ITERATIONS 
       AND A TOTAL OF          7 INNER ITERATIONS.
    ------------------------------------------------

 NO OUTPUT CONTROL FOR STRESS PERIOD   15   TIME STEP   10
 
 SOLVING FOR HEAD 
                                                   Max.-Head-Change                         Max.-Flux-Residual
  Residual-Control   Outer-Iter.   Inner-Iter.     Column Row Layer    Maximum-Head-Change  Column Row Layer    Maximum-Flux-Residual          L2-NORM 
          0                 1           2             3    7     1       0.1805063275E-01       3    7    1         0.4765495907E+00      0.1919059937E+01
          0                 2           2             3    7     1      -0.1756690740E-02       5    8    1         0.5423047260E-01      0.2052296962E+00
          0                 3           2             5    8     1       0.2279502363E-03       5    8    1         0.1225358877E-01      0.2251066389E-01
          0                 4           1             5    8     1       0.5326773623E-04       5    8    1         0.2887670160E-02      0.4324261592E-02

    ------------------------------------------------
       NWT REQUIRED            4 OUTER ITERATIONS 
       AND A TOTAL OF          7 INNER ITERATIONS.
    ------------------------------------------------

 NO OUTPUT CONTROL FOR STRESS PERIOD   15   TIME STEP   11
 
 SOLVING FOR HEAD 
                                                   Max.-Head-Change                         Max.-Flux-Residual
  Residual-Control   Outer-Iter.   Inner-Iter.     Column Row Layer    Maximum-Head-Change  Column Row Layer    Maximum-Flux-Residual          L2-NORM 
          0                 1           2             3    7     1       0.1779155154E-01       3    7    1         0.4696578907E+00      0.1897491181E+01
          0                 2           2             3    7     1      -0.1730937366E-02       5    8    1         0.5419228127E-01      0.2030015158E+00
          0                 3           2             5    8     1       0.2281184249E-03       5    8    1         0.1225767992E-01      0.2227843325E-01
          0                 4           1             5    8     1       0.5334546386E-04       5    8    1         0.2890362739E-02      0.4292034165E-02

    ------------------------------------------------
       NWT REQUIRED            4 OUTER ITERATIONS 
       AND A TOTAL OF          7 INNER ITERATIONS.
    ------------------------------------------------

 NO OUTPUT CONTROL FOR STRESS PERIOD   15   TIME STEP   12
 
 SOLVING FOR HEAD 
                                                   Max.-Head-Change                         Max.-Flux-Residual
  Residual-Control   Outer-Iter.   Inner-Iter.     Column Row Layer    Maximum-Head-Change  Column Row Layer    Maximum-Flux-Residual          L2-NORM 
          0                 1           2             3    7     1       0.1753907019E-01       3    7    1         0.4629412673E+00      0.1876919141E+01
          0                 2           2             3    7     1      -0.1705836968E-02       5    8    1         0.5415731094E-01      0.2010065096E+00
          0                 3           2             5    8     1       0.2282916520E-03       5    8    1         0.1226217912E-01      0.2213810743E-01
          0                 4           1             5    8     1       0.5342334119E-04       5    8    1         0.2893103947E-02      0.4285477021E-02

    ------------------------------------------------
       NWT REQUIRED            4 OUTER ITERATIONS 
       AND A TOTAL OF          7 INNER ITERATIONS.
    ------------------------------------------------

 NO OUTPUT CONTROL FOR STRESS PERIOD   15   TIME STEP   13
 
 SOLVING FOR HEAD 
                                                   Max.-Head-Change                         Max.-Flux-Residual
  Residual-Control   Outer-Iter.   Inner-Iter.     Column Row Layer    Maximum-Head-Change  Column Row Layer    Maximum-Flux-Residual          L2-NORM 
          0                 1           2             3    7     1       0.1729302162E-01       3    7    1         0.4563953606E+00      0.1857276686E+01
          0                 2           2             3    7     1      -0.1681374066E-02       5    8    1         0.5412174409E-01      0.1992204005E+00
          0                 3           2             5    8     1       0.2284536064E-03       5    8    1         0.1226619853E-01      0.2207754354E-01
          0                 4           1             5    8     1       0.5349757802E-04       5    8    1         0.2895687775E-02      0.4300812925E-02

    ------------------------------------------------
       NWT REQUIRED            4 OUTER ITERATIONS 
       AND A TOTAL OF          7 INNER ITERATIONS.
    ------------------------------------------------

 NO OUTPUT CONTROL FOR STRESS PERIOD   15   TIME STEP   14
 
 SOLVING FOR HEAD 
                                                   Max.-Head-Change                         Max.-Flux-Residual
  Residual-Control   Outer-Iter.   Inner-Iter.     Column Row Layer    Maximum-Head-Change  Column Row Layer    Maximum-Flux-Residual          L2-NORM 
          0                 1           2             3    7     1       0.1705275154E-01       3    7    1         0.4500028874E+00      0.1838500402E+01
          0                 2           2             3    7     1      -0.1657485576E-02       5    8    1         0.5408749832E-01      0.1976233953E+00
          0                 3           2             5    8     1       0.2286132843E-03       5    8    1         0.1227021397E-01      0.2208670746E-01
          0                 4           1             5    8     1       0.5357035458E-04       5    8    1         0.2898229342E-02      0.4334853236E-02

    ------------------------------------------------
       NWT REQUIRED            4 OUTER ITERATIONS 
       AND A TOTAL OF          7 INNER ITERATIONS.
    ------------------------------------------------

 NO OUTPUT CONTROL FOR STRESS PERIOD   15   TIME STEP   15
 
 SOLVING FOR HEAD 
                                                   Max.-Head-Change                         Max.-Flux-Residual
  Residual-Control   Outer-Iter.   Inner-Iter.     Column Row Layer    Maximum-Head-Change  Column Row Layer    Maximum-Flux-Residual          L2-NORM 
          0                 1           2             3    7     1       0.1681858340E-01       3    7    1         0.4437726844E+00      0.1820524062E+01
          0                 2           2             3    7     1      -0.1634204253E-02       5    8    1         0.5405447661E-01      0.1961949571E+00
          0                 3           2             5    8     1       0.2287698971E-03       5    8    1         0.1227419275E-01      0.2215513945E-01
          0                 4           1             5    8     1       0.5364142939E-04       5    8    1         0.2900717690E-02      0.4384297686E-02

    ------------------------------------------------
       NWT REQUIRED            4 OUTER ITERATIONS 
       AND A TOTAL OF          7 INNER ITERATIONS.
    ------------------------------------------------

 NO OUTPUT CONTROL FOR STRESS PERIOD   15   TIME STEP   16
 
 SOLVING FOR HEAD 
                                                   Max.-Head-Change                         Max.-Flux-Residual
  Residual-Control   Outer-Iter.   Inner-Iter.     Column Row Layer    Maximum-Head-Change  Column Row Layer    Maximum-Flux-Residual          L2-NORM 
          0                 1           2             3    7     1       0.1659035088E-01       6    8    1         0.4384910497E+00      0.1803300045E+01
          0                 2           2             3    7     1      -0.1611512944E-02       5    8    1         0.5402258686E-01      0.1949184916E+00
          0                 3           2             5    8     1       0.2289233307E-03       5    8    1         0.1227812394E-01      0.2227377007E-01
          0                 4           1             5    8     1       0.5371080994E-04       5    8    1         0.2903151879E-02      0.4446310903E-02

    ------------------------------------------------
       NWT REQUIRED            4 OUTER ITERATIONS 
       AND A TOTAL OF          7 INNER ITERATIONS.
    ------------------------------------------------

 NO OUTPUT CONTROL FOR STRESS PERIOD   15   TIME STEP   17
 
 SOLVING FOR HEAD 
                                                   Max.-Head-Change                         Max.-Flux-Residual
  Residual-Control   Outer-Iter.   Inner-Iter.     Column Row Layer    Maximum-Head-Change  Column Row Layer    Maximum-Flux-Residual          L2-NORM 
          0                 1           2             3    7     1       0.1636763994E-01       6    8    1         0.4337374739E+00      0.1786780476E+01
          0                 2           2             3    7     1      -0.1589372886E-02       5    8    1         0.5399001967E-01      0.1937776084E+00
          0                 3           2             5    8     1       0.2290661501E-03       5    8    1         0.1228159583E-01      0.2243385349E-01
          0                 4           1             5    8     1       0.5377680724E-04       5    8    1         0.2905438722E-02      0.4518211506E-02

    ------------------------------------------------
       NWT REQUIRED            4 OUTER ITERATIONS 
       AND A TOTAL OF          7 INNER ITERATIONS.
    ------------------------------------------------

 NO OUTPUT CONTROL FOR STRESS PERIOD   15   TIME STEP   18
 
 SOLVING FOR HEAD 
                                                   Max.-Head-Change                         Max.-Flux-Residual
  Residual-Control   Outer-Iter.   Inner-Iter.     Column Row Layer    Maximum-Head-Change  Column Row Layer    Maximum-Flux-Residual          L2-NORM 
          0                 1           2             3    7     1       0.1615052935E-01       6    8    1         0.4291008619E+00      0.1770916499E+01
          0                 2           2             3    7     1      -0.1567791386E-02       5    8    1         0.5396041872E-01      0.1927591796E+00
          0                 3           2             5    8     1       0.2292139683E-03       5    8    1         0.1228546120E-01      0.2262873374E-01
          0                 4           1             5    8     1       0.5384304265E-04       5    8    1         0.2907775171E-02      0.4597992264E-02

    ------------------------------------------------
       NWT REQUIRED            4 OUTER ITERATIONS 
       AND A TOTAL OF          7 INNER ITERATIONS.
    ------------------------------------------------

 NO OUTPUT CONTROL FOR STRESS PERIOD   15   TIME STEP   19
 
 SOLVING FOR HEAD 
                                                   Max.-Head-Change                         Max.-Flux-Residual
  Residual-Control   Outer-Iter.   Inner-Iter.     Column Row Layer    Maximum-Head-Change  Column Row Layer    Maximum-Flux-Residual          L2-NORM 
          0                 1           2             3    7     1       0.1593861262E-01       6    8    1         0.4245780981E+00      0.1755657346E+01
          0                 2           2             3    7     1      -0.1546728551E-02       5    8    1         0.5393164430E-01      0.1918479148E+00
          0                 3           2             5    8     1       0.2293575489E-03       5    8    1         0.1228922356E-01      0.2285098734E-01
          0                 4           1             5    8     1       0.5390734607E-04       5    8    1         0.2910044103E-02      0.4683527009E-02

    ------------------------------------------------
       NWT REQUIRED            4 OUTER ITERATIONS 
       AND A TOTAL OF          7 INNER ITERATIONS.
    ------------------------------------------------

 NO OUTPUT CONTROL FOR STRESS PERIOD   15   TIME STEP   20
 
 SOLVING FOR HEAD 
                                                   Max.-Head-Change                         Max.-Flux-Residual
  Residual-Control   Outer-Iter.   Inner-Iter.     Column Row Layer    Maximum-Head-Change  Column Row Layer    Maximum-Flux-Residual          L2-NORM 
          0                 1           2             3    7     1       0.1573221877E-01       6    8    1         0.4201805784E+00      0.1740993050E+01
          0                 2           2             3    7     1      -0.1526216765E-02       5    8    1         0.5390380802E-01      0.1910357720E+00
          0                 3           2             5    8     1       0.2294981973E-03       5    8    1         0.1229292981E-01      0.2309554175E-01
          0                 4           1             5    8     1       0.5397014746E-04       5    8    1         0.2912264204E-02      0.4773349891E-02

    ------------------------------------------------
       NWT REQUIRED            4 OUTER ITERATIONS 
       AND A TOTAL OF          7 INNER ITERATIONS.
    ------------------------------------------------

 NO OUTPUT CONTROL FOR STRESS PERIOD   15   TIME STEP   21
 
 SOLVING FOR HEAD 
                                                   Max.-Head-Change                         Max.-Flux-Residual
  Residual-Control   Outer-Iter.   Inner-Iter.     Column Row Layer    Maximum-Head-Change  Column Row Layer    Maximum-Flux-Residual          L2-NORM 
          0                 1           2             3    7     1       0.1553069328E-01       6    8    1         0.4158897774E+00      0.1726857146E+01
          0                 2           2             3    7     1      -0.1506192731E-02       5    8    1         0.5387666906E-01      0.1903078830E+00
          0                 3           2             5    8     1       0.2296342850E-03       5    8    1         0.1229651390E-01      0.2335650540E-01
          0                 4           1             5    8     1       0.5403095996E-04       5    8    1         0.2914412951E-02      0.4865880847E-02

    ------------------------------------------------
       NWT REQUIRED            4 OUTER ITERATIONS 
       AND A TOTAL OF          7 INNER ITERATIONS.
    ------------------------------------------------

 NO OUTPUT CONTROL FOR STRESS PERIOD   15   TIME STEP   22
 
 SOLVING FOR HEAD 
                                                   Max.-Head-Change                         Max.-Flux-Residual
  Residual-Control   Outer-Iter.   Inner-Iter.     Column Row Layer    Maximum-Head-Change  Column Row Layer    Maximum-Flux-Residual          L2-NORM 
          0                 1           2             3    7     1       0.1533436845E-01       6    8    1         0.4117100846E+00      0.1713235543E+01
          0                 2           2             3    7     1      -0.1486688176E-02       5    8    1         0.5385020286E-01      0.1896574035E+00
          0                 3           2             5    8     1       0.2297660404E-03       5    8    1         0.1229997612E-01      0.2363022215E-01
          0                 4           1             5    8     1       0.5408989975E-04       5    8    1         0.2916494293E-02      0.4960156632E-02

    ------------------------------------------------
       NWT REQUIRED            4 OUTER ITERATIONS 
       AND A TOTAL OF          7 INNER ITERATIONS.
    ------------------------------------------------

 NO OUTPUT CONTROL FOR STRESS PERIOD   15   TIME STEP   23
 
 SOLVING FOR HEAD 
                                                   Max.-Head-Change                         Max.-Flux-Residual
  Residual-Control   Outer-Iter.   Inner-Iter.     Column Row Layer    Maximum-Head-Change  Column Row Layer    Maximum-Flux-Residual          L2-NORM 
          0                 1           2             3    7     1       0.1514260036E-01       6    8    1         0.4076381337E+00      0.1700091158E+01
          0                 2           2             3    7     1      -0.1467640303E-02       5    8    1         0.5382252355E-01      0.1890737166E+00
          0                 3           2             5    8     1       0.2298858858E-03       5    8    1         0.1230289793E-01      0.2391229818E-01
          0                 4           1             5    8     1       0.5414525420E-04       5    8    1         0.2918413291E-02      0.5055062776E-02

    ------------------------------------------------
       NWT REQUIRED            4 OUTER ITERATIONS 
       AND A TOTAL OF          7 INNER ITERATIONS.
    ------------------------------------------------

 NO OUTPUT CONTROL FOR STRESS PERIOD   15   TIME STEP   24
 
 SOLVING FOR HEAD 
                                                   Max.-Head-Change                         Max.-Flux-Residual
  Residual-Control   Outer-Iter.   Inner-Iter.     Column Row Layer    Maximum-Head-Change  Column Row Layer    Maximum-Flux-Residual          L2-NORM 
          0                 1           2             3    7     1       0.1495572765E-01       6    8    1         0.4036706952E+00      0.1687395662E+01
          0                 2           2             3    7     1      -0.1449081859E-02       5    8    1         0.5379716809E-01      0.1885504370E+00
          0                 3           2             5    8     1       0.2300082614E-03       5    8    1         0.1230608204E-01      0.2420035018E-01
          0                 4           1             5    8     1       0.5420028713E-04       5    8    1         0.2920350653E-02      0.5150040564E-02

    ------------------------------------------------
       NWT REQUIRED            4 OUTER ITERATIONS 
       AND A TOTAL OF          7 INNER ITERATIONS.
    ------------------------------------------------

 NO OUTPUT CONTROL FOR STRESS PERIOD   15   TIME STEP   25
 
 SOLVING FOR HEAD 
                                                   Max.-Head-Change                         Max.-Flux-Residual
  Residual-Control   Outer-Iter.   Inner-Iter.     Column Row Layer    Maximum-Head-Change  Column Row Layer    Maximum-Flux-Residual          L2-NORM 
          0                 1           2             3    7     1       0.1477335388E-01       6    8    1         0.3997973593E+00      0.1675129333E+01
          0                 2           2             3    7     1      -0.1430974461E-02       5    8    1         0.5377215614E-01      0.1880804008E+00
          0                 3           2             5    8     1       0.2301256240E-03       5    8    1         0.1230909735E-01      0.2449142118E-01
          0                 4           1             5    8     1       0.5425336595E-04       5    8    1         0.2922213161E-02      0.5244375131E-02

    ------------------------------------------------
       NWT REQUIRED            4 OUTER ITERATIONS 
       AND A TOTAL OF          7 INNER ITERATIONS.
    ------------------------------------------------

 NO OUTPUT CONTROL FOR STRESS PERIOD   15   TIME STEP   26
 
 SOLVING FOR HEAD 
                                                   Max.-Head-Change                         Max.-Flux-Residual
  Residual-Control   Outer-Iter.   Inner-Iter.     Column Row Layer    Maximum-Head-Change  Column Row Layer    Maximum-Flux-Residual          L2-NORM 
          0                 1           2             3    7     1       0.1459533373E-01       6    8    1         0.3960302511E+00      0.1663257366E+01
          0                 2           2             3    7     1      -0.1413303285E-02       5    8    1         0.5374558653E-01      0.1876555925E+00
          0                 3           2             5    8     1       0.2302296063E-03       5    8    1         0.1231149408E-01      0.2478290069E-01
          0                 4           1             5    8     1       0.5430251852E-04       5    8    1         0.2923894640E-02      0.5337480355E-02

    ------------------------------------------------
       NWT REQUIRED            4 OUTER ITERATIONS 
       AND A TOTAL OF          7 INNER ITERATIONS.
    ------------------------------------------------

 NO OUTPUT CONTROL FOR STRESS PERIOD   15   TIME STEP   27
 
 SOLVING FOR HEAD 
                                                   Max.-Head-Change                         Max.-Flux-Residual
  Residual-Control   Outer-Iter.   Inner-Iter.     Column Row Layer    Maximum-Head-Change  Column Row Layer    Maximum-Flux-Residual          L2-NORM 
          0                 1           2             3    7     1       0.1442152756E-01       6    8    1         0.3923512478E+00      0.1651768230E+01
          0                 2           2             3    7     1      -0.1396054897E-02       5    8    1         0.5372100765E-01      0.1872723888E+00
          0                 3           2             5    8     1       0.2303354865E-03       5    8    1         0.1231410706E-01      0.2507353955E-01
          0                 4           1             5    8     1       0.5435128980E-04       5    8    1         0.2925587820E-02      0.5429155573E-02

    ------------------------------------------------
       NWT REQUIRED            4 OUTER ITERATIONS 
       AND A TOTAL OF          7 INNER ITERATIONS.
    ------------------------------------------------

 NO OUTPUT CONTROL FOR STRESS PERIOD   15   TIME STEP   28
 
 SOLVING FOR HEAD 
                                                   Max.-Head-Change                         Max.-Flux-Residual
  Residual-Control   Outer-Iter.   Inner-Iter.     Column Row Layer    Maximum-Head-Change  Column Row Layer    Maximum-Flux-Residual          L2-NORM 
          0                 1           2             3    7     1       0.1425204081E-01       6    8    1         0.4057143671E+00      0.1667969400E+01
          0                 2           2             3    7     1      -0.1379238759E-02       5    8    1         0.5377807444E-01      0.1893237440E+00
          0                 3           2             5    8     1       0.2306797524E-03       5    8    1         0.1232804238E-01      0.2545818608E-01
          0                 4           1             5    8     1       0.5445484690E-04       5    8    1         0.2930353206E-02      0.5523865667E-02

    ------------------------------------------------
       NWT REQUIRED            4 OUTER ITERATIONS 
       AND A TOTAL OF          7 INNER ITERATIONS.
    ------------------------------------------------

 NO OUTPUT CONTROL FOR STRESS PERIOD   15   TIME STEP   29
 
 SOLVING FOR HEAD 
                                                   Max.-Head-Change                         Max.-Flux-Residual
  Residual-Control   Outer-Iter.   Inner-Iter.     Column Row Layer    Maximum-Head-Change  Column Row Layer    Maximum-Flux-Residual          L2-NORM 
          0                 1           2             3    7     1       0.1408673630E-01       4   13    1         0.6531666444E+00      0.2041146302E+01
          0                 2           2             3    7     1      -0.1362840247E-02       4   13    1        -0.6466618746E-01      0.2220627354E+00
          0                 3           2             5    8     1       0.2315999262E-03       5    8    1         0.1237079178E-01      0.2696752125E-01
          0                 4           1             5    8     1       0.5469192491E-04       5    8    1         0.2942491687E-02      0.5634631461E-02

    ------------------------------------------------
       NWT REQUIRED            4 OUTER ITERATIONS 
       AND A TOTAL OF          7 INNER ITERATIONS.
    ------------------------------------------------

 NO OUTPUT CONTROL FOR STRESS PERIOD   15   TIME STEP   30



 STREAM LISTING     PERIOD     15   STEP       30

 LAYER ROW COL. STREAM  RCH.  FLOW INTO     FLOW TO   FLOW OUT OF   OVRLND.     DIRECT     STREAM       STREAM     STREAM     STREAM   STREAMBED  STREAMBED
                SEG.NO.  NO.  STRM. RCH.    AQUIFER    STRM. RCH.    RUNOFF     PRECIP       ET          HEAD       DEPTH      WIDTH   CONDCTNC.   GRADIENT

   1    1    1     1     1    3.6751E+01  2.9262E-01   3.6458E+01  0.000E+00  0.000E+00  0.000E+00  1.09435E+03  1.306E+00  1.510E+01  6.795E-02  1.435E+00
   1    2    2     1     2    3.6458E+01  4.5310E-01   3.6005E+01  0.000E+00  0.000E+00  0.000E+00  1.08936E+03  1.303E+00  1.504E+01  1.053E-01  1.434E+00
   1    3    3     1     3    3.6005E+01  3.8635E-01   3.5618E+01  0.000E+00  0.000E+00  0.000E+00  1.08372E+03  1.300E+00  1.497E+01  8.985E-02  1.433E+00
   1    3    4     1     4    3.5618E+01  3.5572E-01   3.5263E+01  0.000E+00  0.000E+00  0.000E+00  1.07870E+03  1.297E+00  1.492E+01  8.278E-02  1.432E+00
   1    4    5     2     1    3.3263E+01  3.4544E-01   3.2917E+01  0.000E+00  0.000E+00  0.000E+00  1.07336E+03  1.429E+00  1.200E+01  7.800E-02  1.476E+00
   1    5    6     2     2    3.2917E+01  2.6525E-01   3.2652E+01  0.000E+00  0.000E+00  0.000E+00  1.06793E+03  1.421E+00  1.200E+01  6.000E-02  1.474E+00
   1    6    6     2     3    3.2652E+01  2.6484E-01   3.2387E+01  0.000E+00  0.000E+00  0.000E+00  1.06321E+03  1.414E+00  1.200E+01  6.000E-02  1.471E+00
   1    7    6     2     4    3.2387E+01  2.6442E-01   3.2123E+01  0.000E+00  0.000E+00  0.000E+00  1.05848E+03  1.407E+00  1.200E+01  6.000E-02  1.469E+00
   1    8    6     2     5    3.2123E+01  2.6401E-01   3.1859E+01  0.000E+00  0.000E+00  0.000E+00  1.05376E+03  1.400E+00  1.200E+01  6.000E-02  1.467E+00
   1    3    5     3     1    2.0000E+00  2.8252E-01   1.7175E+00  0.000E+00  0.000E+00  0.000E+00  1.07555E+03  1.909E+00  9.636E+00  7.227E-02  1.955E+00
   1    3    6     3     2    1.7175E+00  2.4905E-01   1.4684E+00  0.000E+00  0.000E+00  0.000E+00  1.07264E+03  1.727E+00  8.909E+00  6.682E-02  1.864E+00
   1    3    7     3     3    1.4684E+00  1.9718E-01   1.2712E+00  0.000E+00  0.000E+00  0.000E+00  1.06987E+03  1.555E+00  8.218E+00  5.547E-02  1.777E+00
   1    4    8     3     4    1.2712E+00  2.2567E-01   1.0456E+00  0.000E+00  0.000E+00  0.000E+00  1.06682E+03  1.364E+00  7.455E+00  6.709E-02  1.682E+00
   1    5    8     3     5    1.0456E+00  1.5790E-01   8.8768E-01  0.000E+00  0.000E+00  0.000E+00  1.06362E+03  1.164E+00  6.655E+00  4.991E-02  1.582E+00
   1    6    8     3     6    8.8768E-01  5.5980E-02   8.3170E-01  0.000E+00  0.000E+00  0.000E+00  1.06158E+03  1.036E+00  6.145E+00  1.844E-02  1.518E+00
   1    5   10     4     1    1.0000E+01  9.0919E-02   9.9091E+00  0.000E+00  0.000E+00  0.000E+00  1.07836E+03  6.368E-01  1.000E+01  2.500E-02  1.212E+00
   1    5    9     4     2    9.9091E+00  1.8158E-01   9.7275E+00  0.000E+00  0.000E+00  0.000E+00  1.07154E+03  6.315E-01  1.000E+01  5.000E-02  1.211E+00
   1    6    8     4     3    9.7275E+00  1.2689E-01   9.6006E+00  0.000E+00  0.000E+00  0.000E+00  1.06381E+03  6.256E-01  1.000E+01  3.500E-02  1.209E+00
   1    6    8     5     1    1.0432E+01  2.2686E-01   1.0205E+01  0.000E+00  0.000E+00  0.000E+00  1.05868E+03  6.790E-01  1.542E+01  6.166E-02  1.226E+00
   1    7    7     5     2    1.0205E+01  2.7894E-01   9.9265E+00  0.000E+00  0.000E+00  0.000E+00  1.05417E+03  6.732E-01  1.519E+01  7.594E-02  1.224E+00
   1    8    7     5     3    9.9265E+00  1.9221E-01   9.7343E+00  0.000E+00  0.000E+00  0.000E+00  1.04992E+03  6.676E-01  1.497E+01  5.241E-02  1.223E+00
   1    8    6     5     4    9.7343E+00  1.3577E-01   9.5985E+00  0.000E+00  0.000E+00  0.000E+00  1.04691E+03  6.637E-01  1.482E+01  3.706E-02  1.221E+00
   1    9    6     6     1    4.1457E+01  2.7904E-01   4.1178E+01  0.000E+00  0.000E+00  0.000E+00  1.04438E+03  1.651E+00  1.200E+01  6.000E-02  1.550E+00
   1   10    7     6     2    4.1178E+01  2.7864E-01   4.0900E+01  0.000E+00  0.000E+00  0.000E+00  1.03983E+03  1.644E+00  1.200E+01  6.000E-02  1.548E+00
   1   11    7     6     3    4.0900E+01  2.7823E-01   4.0621E+01  0.000E+00  0.000E+00  0.000E+00  1.03527E+03  1.637E+00  1.200E+01  6.000E-02  1.546E+00
   1   12    7     6     4    4.0621E+01  2.7783E-01   4.0344E+01  0.000E+00  0.000E+00  0.000E+00  1.03072E+03  1.631E+00  1.200E+01  6.000E-02  1.544E+00
   1   13    7     6     5    4.0344E+01  2.1230E-02   4.0322E+01  0.000E+00  0.000E+00  0.000E+00  1.02754E+03  1.627E+00  1.200E+01  2.400E-02  2.949E-01
   1   14    9     7     1    1.5000E+02  1.3723E+00   1.4863E+02  0.000E+00  0.000E+00  0.000E+00  1.03987E+03  2.288E+00  5.529E+01  5.593E-01  8.179E-01
   1   13    8     7     2    1.4863E+02  1.9558E+00   1.4667E+02  0.000E+00  0.000E+00  0.000E+00  1.03478E+03  2.279E+00  5.525E+01  6.147E-01  1.060E+00
   1   13    7     7     3    1.4667E+02  1.6958E+00   1.4498E+02  0.000E+00  0.000E+00  0.000E+00  1.02969E+03  2.269E+00  5.521E+01  5.584E-01  1.012E+00
   1   13    6     8     1    1.8530E+02  1.2351E+00   1.8406E+02  0.000E+00  0.000E+00  0.000E+00  1.02492E+03  3.045E+00  4.416E+01  4.500E-01  9.149E-01
   1   13    5     8     2    1.8406E+02  4.5140E-01   1.8361E+02  0.000E+00  0.000E+00  0.000E+00  1.01867E+03  3.040E+00  4.408E+01  4.492E-01  3.350E-01
   1   13    4     8     3    1.8361E+02 -1.1868E+00   1.8480E+02  0.000E+00  0.000E+00  0.000E+00  1.01242E+03  3.042E+00  4.411E+01  4.495E+00 -8.800E-02
   1   13    3     8     4    1.8480E+02 -2.8254E+00   1.8762E+02  0.000E+00  0.000E+00  0.000E+00  1.00618E+03  3.055E+00  4.429E+01  4.514E+00 -2.086E-01
   1   13    2     8     5    1.8762E+02 -1.9608E+00   1.8959E+02  0.000E+00  0.000E+00  0.000E+00  9.99944E+02  3.069E+00  4.451E+01  4.535E+00 -1.441E-01
   1   13    1     8     6    1.8959E+02 -1.6515E+00   1.9124E+02  0.000E+00  0.000E+00  0.000E+00  9.94955E+02  3.080E+00  4.467E+01  2.731E+00 -2.016E-01
   1    8    6     9     1    0.0000E+00  0.0000E+00   0.0000E+00  0.000E+00  0.000E+00  0.000E+00  1.07875E+03  0.000E+00  4.000E+00  0.000E+00  1.000E+00
   1    8    5     9     2    0.0000E+00  0.0000E+00   0.0000E+00  0.000E+00  0.000E+00  0.000E+00  1.07825E+03  0.000E+00  4.000E+00  0.000E+00  1.000E+00





UNSATURATED ZONE PACKAGE VOLUMETRIC BUDGET FOR  TIME STEP    30 STRESS PERIOD   15
  ------------------------------------------------------------------------------



     CUMULATIVE VOLUMES      L**3       RATES FOR THIS TIME STEP      L**3/T
     ------------------                 ------------------------

           IN:                                      IN:
           ---                                      ---
        INFILTRATION =  1939108671.5980          INFILTRATION =           0.8475

          OUT:                                     OUT:
          ----                                     ----
              UZF ET =   436237991.7728                UZF ET =           0.7500
        UZF RECHARGE =  1091443302.0918          UZF RECHARGE =           3.1706

            IN - OUT =   411427377.7334              IN - OUT =          -3.0731

          STORAGE:                                 STORAGE:
          --------                                 --------
      STORAGE CHANGE =   411427770.1188        STORAGE CHANGE =          -3.0731

 PERCENT DISCREPANCY IS DIFFERENCE BETWEEN IN-OUT MINUS CHANGE IN STORAGE
 DIVIDED BY THE AVERAGE OF IN AND OUT TIMES 100

 PERCENT DISCREPANCY =          -0.00     PERCENT DISCREPANCY =           0.00






1
  VOLUMETRIC BUDGET FOR AGRICULTURAL FIELDS AT  END OF TIME STEP   30, STRESS PERIOD  15
  ------------------------------------------------------------------------------

     CUMULATIVE VOLUMES      L**3       RATES FOR THIS TIME STEP      L**3/T
     ------------------                 ------------------------

           IN:                                      IN:
           ---                                      ---
               AG WELLS  =  1630378752.0000                 AG WELLS  =           0.0000
      DIVERSION SEGMENTS =   277447584.0000        DIVERSION SEGMENTS =           0.0000
           GW IRRIGATION =           0.0000             GW IRRIGATION =           0.0000
           SW IRRIGATION =           0.0000             SW IRRIGATION =           0.0000
        SYSTEM LOSSES GW =           0.0000          SYSTEM LOSSES GW =           0.0000
        SYSTEM LOSSES SW =           0.0000          SYSTEM LOSSES SW =           0.0000

                TOTAL IN =  1907826304.0000                  TOTAL IN =           0.0000

          OUT:                                     OUT:
          ----                                     ----
               AG WELLS  =           0.0000                 AG WELLS  =           0.0000
      DIVERSION SEGMENTS =           0.0000        DIVERSION SEGMENTS =           0.0000
           GW IRRIGATION =  1630378752.0000             GW IRRIGATION =           0.0000
           SW IRRIGATION =   277452768.0000             SW IRRIGATION =           0.0000
        SYSTEM LOSSES GW =           0.0000          SYSTEM LOSSES GW =           0.0000
        SYSTEM LOSSES SW =           0.0000          SYSTEM LOSSES SW =           0.0000

               TOTAL OUT =  1907831552.0000                 TOTAL OUT =           0.0000

                IN - OUT =       -5248.0000                  IN - OUT =           0.0000

     PERCENT DISCREPANCY =          -0.00         PERCENT DISCREPANCY =           0.00



1
  VOLUMETRIC BUDGET FOR ENTIRE MODEL AT END OF TIME STEP   30, STRESS PERIOD  15
  ------------------------------------------------------------------------------

     CUMULATIVE VOLUMES      L**3       RATES FOR THIS TIME STEP      L**3/T
     ------------------                 ------------------------

           IN:                                      IN:
           ---                                      ---
             STORAGE     =  1918389760.0000               STORAGE     =           3.2600
       CONSTANT HEAD     =           0.0000         CONSTANT HEAD     =           0.0000
     HEAD DEP BOUNDS     =    10628365.0000       HEAD DEP BOUNDS     =           0.2882
      STREAM LEAKAGE     =   431664864.0000        STREAM LEAKAGE     =          13.1385
        UZF RECHARGE     =  1091443200.0000          UZF RECHARGE     =           3.1706
               GW ET     =           0.0000                 GW ET     =           0.0000
     SURFACE LEAKAGE     =           0.0000       SURFACE LEAKAGE     =           0.0000
           AG WELLS      =           0.0000             AG WELLS      =           0.0000

                TOTAL IN =  3452126208.0000                  TOTAL IN =          19.8574

          OUT:                                     OUT:
          ----                                     ----
             STORAGE     =  1436053248.0000               STORAGE     =          11.9422
       CONSTANT HEAD     =           0.0000         CONSTANT HEAD     =           0.0000
     HEAD DEP BOUNDS     =    10612022.0000       HEAD DEP BOUNDS     =           0.2873
      STREAM LEAKAGE     =   375031456.0000        STREAM LEAKAGE     =           7.6246
        UZF RECHARGE     =           0.0000          UZF RECHARGE     =           0.0000
               GW ET     =           0.0000                 GW ET     =           0.0000
     SURFACE LEAKAGE     =           0.0000       SURFACE LEAKAGE     =           0.0000
           AG WELLS      =  1630378752.0000             AG WELLS      =           0.0000

               TOTAL OUT =  3452075520.0000                 TOTAL OUT =          19.8541

                IN - OUT =       50688.0000                  IN - OUT =       3.2768E-03

     PERCENT DISCREPANCY =           0.00         PERCENT DISCREPANCY =           0.02






         TIME SUMMARY AT END OF TIME STEP   30 IN STRESS PERIOD   15
                    SECONDS     MINUTES      HOURS       DAYS        YEARS
                    -----------------------------------------------------------
   TIME STEP LENGTH  87667.      1461.1      24.352      1.0147     2.77799E-03
 STRESS PERIOD TIME 2.63000E+06  43833.      730.56      30.440     8.33397E-02
         TOTAL TIME 3.69063E+07 6.15106E+05  10252.      427.16      1.1695    
1
1
                            STRESS PERIOD NO.   16, LENGTH =   2630000.    
                            -----------------------------------------------

                              NUMBER OF TIME STEPS =    30

                               MULTIPLIER FOR DELT =     1.000

                            INITIAL TIME STEP SIZE =   87666.66    

 REUSING NON-PARAMETER GHB CELLS FROM LAST STRESS PERIOD

      2 GHB CELLS

 REUSING STREAM SEGMENT DATA FROM LAST STRESS PERIOD



            AREAL INFILTRATION RATE
 READING ON UNIT   19 WITH FORMAT: (FREE)              

            1           2           3           4           5           6           7           8           9          10
 ........................................................................................................................
   1   1.0000E-10  2.0000E-10   0.000       0.000       0.000       0.000       0.000       0.000       0.000       0.000    
   2   2.0000E-10  1.0000E-10  2.0000E-10   0.000       0.000      8.0000E-10  8.0000E-10  5.0000E-10   0.000       0.000    
   3    0.000      5.0000E-10  1.0000E-10  1.0000E-10  8.0000E-10  8.0000E-10  5.0000E-10  5.0000E-10   0.000       0.000    
   4   8.0000E-10  5.0000E-10  1.0000E-10  1.0000E-10  1.0000E-10  1.0000E-10  1.0000E-10  1.0000E-10  2.0000E-10   0.000    
   5   8.0000E-10  5.0000E-10  1.0000E-10  1.0000E-10  1.0000E-10  1.0000E-10  1.0000E-10  1.0000E-10  1.0000E-10  1.0000E-10
   6   8.0000E-10  5.0000E-10  5.0000E-10  2.0000E-10  2.0000E-10  1.0000E-10  1.0000E-10  1.0000E-10  1.0000E-10  5.0000E-10
   7   8.0000E-10  5.0000E-10  5.0000E-10  2.0000E-10  2.0000E-10  1.0000E-10  1.0000E-10  2.0000E-10  2.0000E-10   0.000    
   8    0.000      5.0000E-10  5.0000E-10  2.0000E-10  2.0000E-10  1.0000E-10  1.0000E-10  2.0000E-10  5.0000E-10   0.000    
   9    0.000      5.0000E-10  5.0000E-10  2.0000E-10  2.0000E-10  1.0000E-10  1.0000E-10  2.0000E-10  5.0000E-10   0.000    
  10    0.000      5.0000E-10  5.0000E-10  2.0000E-10  2.0000E-10  1.0000E-10  1.0000E-10  2.0000E-10  5.0000E-10  8.0000E-10
  11    0.000      1.0000E-10  1.0000E-10  1.0000E-10  1.0000E-10  1.0000E-10  1.0000E-10  2.0000E-10  5.0000E-10   0.000    
  12   1.0000E-10  1.0000E-10  1.0000E-10  1.0000E-10  1.0000E-10  1.0000E-10  1.0000E-10  1.0000E-10  2.0000E-10   0.000    
  13   1.0000E-10  1.0000E-10  2.0000E-10  2.0000E-10  2.0000E-10  2.0000E-10  2.0000E-10  1.0000E-10  1.0000E-10   0.000    
  14    0.000      2.0000E-10  5.0000E-10  5.0000E-10  5.0000E-10  5.0000E-10  5.0000E-10  2.0000E-10  1.0000E-10   0.000    
  15    0.000       0.000      8.0000E-10  8.0000E-10  8.0000E-10  8.0000E-10   0.000       0.000       0.000       0.000    

                  ET RATE =  5.000000E-10

 USING ET EXTINCTION DEPTH FROM PREVIOUS STRESS PERIOD. CURRENT PERIOD IS:      16

 USING EXTINCTION WATER CONTENT FROM PREVIOUS STRESS PERIOD. CURRENT PERIOD IS:      16

 USING AIR ENTRY PRESSURE FROM PREVIOUS STRESS PERIOD. CURRENT PERIOD IS:      16

 USING ROOT PRESSURE HEAD FROM PREVIOUS STRESS PERIOD. CURRENT PERIOD IS:      16

 USING ROOT ACTIVITY FROM PREVIOUS STRESS PERIOD. CURRENT PERIOD IS:      16

 PROCESSING AG STRESS PERIOD DATA

 READING AG STRESS PERIOD DATA

 READING IRRIGATION SEGMENT

 READING IRRIGATION WELL

 READING SUPPLEMENTAL WELL

 END PROCESSING AG STRESS PERIOD DATA OPTIONS
 
 SOLVING FOR HEAD 
                                                   Max.-Head-Change                         Max.-Flux-Residual
  Residual-Control   Outer-Iter.   Inner-Iter.     Column Row Layer    Maximum-Head-Change  Column Row Layer    Maximum-Flux-Residual          L2-NORM 
          0                 1           2             3    7     1       0.1392524215E-01       4   13    1         0.5904403014E+00      0.1985713841E+01
          0                 2           2             3    7     1      -0.1346822891E-02       4   13    1        -0.5845566808E-01      0.2178573563E+00
          0                 3           2             5    8     1       0.2324548907E-03       5    8    1         0.1241443427E-01      0.2713511151E-01
          0                 4           1             5    8     1       0.5491315863E-04       5    8    1         0.2953618608E-02      0.5732746112E-02

    ------------------------------------------------
       NWT REQUIRED            4 OUTER ITERATIONS 
       AND A TOTAL OF          7 INNER ITERATIONS.
    ------------------------------------------------

 NO OUTPUT CONTROL FOR STRESS PERIOD   16   TIME STEP    1
 
 SOLVING FOR HEAD 
                                                   Max.-Head-Change                         Max.-Flux-Residual
  Residual-Control   Outer-Iter.   Inner-Iter.     Column Row Layer    Maximum-Head-Change  Column Row Layer    Maximum-Flux-Residual          L2-NORM 
          0                 1           2             3    7     1       0.1376743770E-01       4   13    1         0.5340072988E+00      0.1936797311E+01
          0                 2           2             3    7     1      -0.1331175179E-02       5    8    1         0.5429994859E-01      0.2142695890E+00
          0                 3           2             5    8     1       0.2332491248E-03       5    8    1         0.1245485992E-01      0.2732286628E-01
          0                 4           1             5    8     1       0.5511961954E-04       5    8    1         0.2963968910E-02      0.5827796748E-02

    ------------------------------------------------
       NWT REQUIRED            4 OUTER ITERATIONS 
       AND A TOTAL OF          7 INNER ITERATIONS.
    ------------------------------------------------

 NO OUTPUT CONTROL FOR STRESS PERIOD   16   TIME STEP    2
 
 SOLVING FOR HEAD 
                                                   Max.-Head-Change                         Max.-Flux-Residual
  Residual-Control   Outer-Iter.   Inner-Iter.     Column Row Layer    Maximum-Head-Change  Column Row Layer    Maximum-Flux-Residual          L2-NORM 
          0                 1           2             3    7     1       0.1361368807E-01       4   13    1         0.4832222437E+00      0.1893542478E+01
          0                 2           2             3    7     1      -0.1315932808E-02       5    8    1         0.5442427931E-01      0.2111587197E+00
          0                 3           2             5    8     1       0.2339708964E-03       5    8    1         0.1249143210E-01      0.2752203097E-01
          0                 4           1             5    8     1       0.5530857243E-04       5    8    1         0.2973394257E-02      0.5919727275E-02

    ------------------------------------------------
       NWT REQUIRED            4 OUTER ITERATIONS 
       AND A TOTAL OF          7 INNER ITERATIONS.
    ------------------------------------------------

 NO OUTPUT CONTROL FOR STRESS PERIOD   16   TIME STEP    3
 
 SOLVING FOR HEAD 
                                                   Max.-Head-Change                         Max.-Flux-Residual
  Residual-Control   Outer-Iter.   Inner-Iter.     Column Row Layer    Maximum-Head-Change  Column Row Layer    Maximum-Flux-Residual          L2-NORM 
          0                 1           2             3    7     1       0.1346313927E-01       4   13    1         0.4374993256E+00      0.1855196557E+01
          0                 2           2             3    7     1      -0.1301011623E-02       5    8    1         0.5453753084E-01      0.2085044129E+00
          0                 3           2             5    8     1       0.2346395037E-03       5    8    1         0.1252521018E-01      0.2773101925E-01
          0                 4           1             5    8     1       0.5548445715E-04       5    8    1         0.2982137515E-02      0.6008567991E-02

    ------------------------------------------------
       NWT REQUIRED            4 OUTER ITERATIONS 
       AND A TOTAL OF          7 INNER ITERATIONS.
    ------------------------------------------------

 NO OUTPUT CONTROL FOR STRESS PERIOD   16   TIME STEP    4
 
 SOLVING FOR HEAD 
                                                   Max.-Head-Change                         Max.-Flux-Residual
  Residual-Control   Outer-Iter.   Inner-Iter.     Column Row Layer    Maximum-Head-Change  Column Row Layer    Maximum-Flux-Residual          L2-NORM 
          0                 1           2             3    7     1       0.1331641212E-01       6    8    1         0.4201368187E+00      0.1821141694E+01
          0                 2           2             3    7     1      -0.1286472586E-02       5    8    1         0.5463872927E-01      0.2062269852E+00
          0                 3           2             5    8     1       0.2352514994E-03       5    8    1         0.1255598766E-01      0.2794556847E-01
          0                 4           1             5    8     1       0.5564657613E-04       5    8    1         0.2990156930E-02      0.6094250800E-02

    ------------------------------------------------
       NWT REQUIRED            4 OUTER ITERATIONS 
       AND A TOTAL OF          7 INNER ITERATIONS.
    ------------------------------------------------

 NO OUTPUT CONTROL FOR STRESS PERIOD   16   TIME STEP    5
 
 SOLVING FOR HEAD 
                                                   Max.-Head-Change                         Max.-Flux-Residual
  Residual-Control   Outer-Iter.   Inner-Iter.     Column Row Layer    Maximum-Head-Change  Column Row Layer    Maximum-Flux-Residual          L2-NORM 
          0                 1           2             3    7     1       0.1317314475E-01       6    8    1         0.4158100231E+00      0.1790804214E+01
          0                 2           2             3    7     1      -0.1272279431E-02       5    8    1         0.5472853548E-01      0.2042699058E+00
          0                 3           2             5    8     1       0.2358090980E-03       5    8    1         0.1258390342E-01      0.2816267139E-01
          0                 4           1             5    8     1       0.5579535243E-04       5    8    1         0.2997478817E-02      0.6176665137E-02

    ------------------------------------------------
       NWT REQUIRED            4 OUTER ITERATIONS 
       AND A TOTAL OF          7 INNER ITERATIONS.
    ------------------------------------------------

 NO OUTPUT CONTROL FOR STRESS PERIOD   16   TIME STEP    6
 
 SOLVING FOR HEAD 
                                                   Max.-Head-Change                         Max.-Flux-Residual
  Residual-Control   Outer-Iter.   Inner-Iter.     Column Row Layer    Maximum-Head-Change  Column Row Layer    Maximum-Flux-Residual          L2-NORM 
          0                 1           2             3    7     1       0.1303298181E-01       6    8    1         0.4116098938E+00      0.1763696924E+01
          0                 2           2             3    7     1      -0.1258398155E-02       5    8    1         0.5480779398E-01      0.2025868825E+00
          0                 3           2             5    8     1       0.2363166875E-03       5    8    1         0.1260917570E-01      0.2838060645E-01
          0                 4           1             5    8     1       0.5593191856E-04       5    8    1         0.3004160536E-02      0.6256047971E-02

    ------------------------------------------------
       NWT REQUIRED            4 OUTER ITERATIONS 
       AND A TOTAL OF          7 INNER ITERATIONS.
    ------------------------------------------------

 NO OUTPUT CONTROL FOR STRESS PERIOD   16   TIME STEP    7
 
 SOLVING FOR HEAD 
                                                   Max.-Head-Change                         Max.-Flux-Residual
  Residual-Control   Outer-Iter.   Inner-Iter.     Column Row Layer    Maximum-Head-Change  Column Row Layer    Maximum-Flux-Residual          L2-NORM 
          0                 1           2             3    7     1       0.1289606408E-01       6    8    1         0.4075319804E+00      0.1739383486E+01
          0                 2           2             3    7     1      -0.1244842210E-02       5    8    1         0.5487891939E-01      0.2011358239E+00
          0                 3           2             5    8     1       0.2367835520E-03       5    8    1         0.1263233286E-01      0.2859721253E-01
          0                 4           1             5    8     1       0.5605829367E-04       5    8    1         0.3010317000E-02      0.6332228678E-02

    ------------------------------------------------
       NWT REQUIRED            4 OUTER ITERATIONS 
       AND A TOTAL OF          7 INNER ITERATIONS.
    ------------------------------------------------

 NO OUTPUT CONTROL FOR STRESS PERIOD   16   TIME STEP    8
 
 SOLVING FOR HEAD 
                                                   Max.-Head-Change                         Max.-Flux-Residual
  Residual-Control   Outer-Iter.   Inner-Iter.     Column Row Layer    Maximum-Head-Change  Column Row Layer    Maximum-Flux-Residual          L2-NORM 
          0                 1           2             3    7     1       0.1276252836E-01       6    8    1         0.4035721026E+00      0.1717499222E+01
          0                 2           2             3    7     1      -0.1231624161E-02       5    8    1         0.5493880846E-01      0.1998823307E+00
          0                 3           2             5    8     1       0.2371980359E-03       5    8    1         0.1265271080E-01      0.2881095909E-01
          0                 4           1             5    8     1       0.5617196651E-04       5    8    1         0.3015804175E-02      0.6405334041E-02

    ------------------------------------------------
       NWT REQUIRED            4 OUTER ITERATIONS 
       AND A TOTAL OF          7 INNER ITERATIONS.
    ------------------------------------------------

 NO OUTPUT CONTROL FOR STRESS PERIOD   16   TIME STEP    9
 
 SOLVING FOR HEAD 
                                                   Max.-Head-Change                         Max.-Flux-Residual
  Residual-Control   Outer-Iter.   Inner-Iter.     Column Row Layer    Maximum-Head-Change  Column Row Layer    Maximum-Flux-Residual          L2-NORM 
          0                 1           2             3    7     1       0.1263178223E-01       6    8    1         0.3997258764E+00      0.1697706814E+01
          0                 2           2             3    7     1      -0.1218686154E-02       5    8    1         0.5499179989E-01      0.1987951631E+00
          0                 3           2             5    8     1       0.2375772434E-03       5    8    1         0.1267126519E-01      0.2902119583E-01
          0                 4           1             4    8     1       0.5645837429E-04       5    8    1         0.3020835359E-02      0.6475496074E-02

    ------------------------------------------------
       NWT REQUIRED            4 OUTER ITERATIONS 
       AND A TOTAL OF          7 INNER ITERATIONS.
    ------------------------------------------------

 NO OUTPUT CONTROL FOR STRESS PERIOD   16   TIME STEP   10
 
 SOLVING FOR HEAD 
                                                   Max.-Head-Change                         Max.-Flux-Residual
  Residual-Control   Outer-Iter.   Inner-Iter.     Column Row Layer    Maximum-Head-Change  Column Row Layer    Maximum-Flux-Residual          L2-NORM 
          0                 1           2             3    7     1       0.1250397668E-01       6    8    1         0.3959818698E+00      0.1679745007E+01
          0                 2           2             3    7     1      -0.1206043026E-02       5    8    1         0.5503643694E-01      0.1978497227E+00
          0                 3           2             5    8     1       0.2379160068E-03       5    8    1         0.1268769896E-01      0.2922666683E-01
          0                 4           1             4    8     1       0.5676588607E-04       5    8    1         0.3025347109E-02      0.6542702050E-02

    ------------------------------------------------
       NWT REQUIRED            4 OUTER ITERATIONS 
       AND A TOTAL OF          7 INNER ITERATIONS.
    ------------------------------------------------

 NO OUTPUT CONTROL FOR STRESS PERIOD   16   TIME STEP   11
 
 SOLVING FOR HEAD 
                                                   Max.-Head-Change                         Max.-Flux-Residual
  Residual-Control   Outer-Iter.   Inner-Iter.     Column Row Layer    Maximum-Head-Change  Column Row Layer    Maximum-Flux-Residual          L2-NORM 
          0                 1           2             3    7     1       0.1237925823E-01       6    8    1         0.3923514145E+00      0.1663362845E+01
          0                 2           2             3    7     1      -0.1193708345E-02       5    8    1         0.5507324500E-01      0.1970241089E+00
          0                 3           2             5    8     1       0.2382163625E-03       5    8    1         0.1270212450E-01      0.2942666593E-01
          0                 4           1             4    8     1       0.5705986797E-04       5    8    1         0.3029364882E-02      0.6607005285E-02

    ------------------------------------------------
       NWT REQUIRED            4 OUTER ITERATIONS 
       AND A TOTAL OF          7 INNER ITERATIONS.
    ------------------------------------------------

 NO OUTPUT CONTROL FOR STRESS PERIOD   16   TIME STEP   12
 
 SOLVING FOR HEAD 
                                                   Max.-Head-Change                         Max.-Flux-Residual
  Residual-Control   Outer-Iter.   Inner-Iter.     Column Row Layer    Maximum-Head-Change  Column Row Layer    Maximum-Flux-Residual          L2-NORM 
          0                 1           2             3    7     1       0.1225704333E-01       6    8    1         0.3888153830E+00      0.1648341947E+01
          0                 2           2             3    7     1      -0.1181625530E-02       5    8    1         0.5510261536E-01      0.1962970275E+00
          0                 3           2             5    8     1       0.2384801093E-03       5    8    1         0.1271464109E-01      0.2962057346E-01
          0                 4           1             4    8     1       0.5734195433E-04       4    8    1         0.3038690244E-02      0.6668473264E-02

    ------------------------------------------------
       NWT REQUIRED            4 OUTER ITERATIONS 
       AND A TOTAL OF          7 INNER ITERATIONS.
    ------------------------------------------------

 NO OUTPUT CONTROL FOR STRESS PERIOD   16   TIME STEP   13
 
 SOLVING FOR HEAD 
                                                   Max.-Head-Change                         Max.-Flux-Residual
  Residual-Control   Outer-Iter.   Inner-Iter.     Column Row Layer    Maximum-Head-Change  Column Row Layer    Maximum-Flux-Residual          L2-NORM 
          0                 1           2             3    7     1       0.1213773188E-01       6    8    1         0.3853780306E+00      0.1634530899E+01
          0                 2           2             3    7     1      -0.1169833182E-02       5    8    1         0.5512510279E-01      0.1956557875E+00
          0                 3           2             4    8     1       0.2388344395E-03       5    8    1         0.1272538229E-01      0.2980829646E-01
          0                 4           1             4    8     1       0.5761086135E-04       4    8    1         0.3052636288E-02      0.6727220312E-02

    ------------------------------------------------
       NWT REQUIRED            4 OUTER ITERATIONS 
       AND A TOTAL OF          7 INNER ITERATIONS.
    ------------------------------------------------

 NO OUTPUT CONTROL FOR STRESS PERIOD   16   TIME STEP   14
 
 SOLVING FOR HEAD 
                                                   Max.-Head-Change                         Max.-Flux-Residual
  Residual-Control   Outer-Iter.   Inner-Iter.     Column Row Layer    Maximum-Head-Change  Column Row Layer    Maximum-Flux-Residual          L2-NORM 
          0                 1           2             3    7     1       0.1202098953E-01       6    8    1         0.3820431580E+00      0.1621755785E+01
          0                 2           2             3    7     1      -0.1158298126E-02       5    8    1         0.5514100486E-01      0.1950851192E+00
          0                 3           2             4    8     1       0.2398665983E-03       5    8    1         0.1273441113E-01      0.2998914249E-01
          0                 4           1             4    8     1       0.5786699669E-04       4    8    1         0.3065919492E-02      0.6783284008E-02

    ------------------------------------------------
       NWT REQUIRED            4 OUTER ITERATIONS 
       AND A TOTAL OF          7 INNER ITERATIONS.
    ------------------------------------------------

 NO OUTPUT CONTROL FOR STRESS PERIOD   16   TIME STEP   15
 
 SOLVING FOR HEAD 
                                                   Max.-Head-Change                         Max.-Flux-Residual
  Residual-Control   Outer-Iter.   Inner-Iter.     Column Row Layer    Maximum-Head-Change  Column Row Layer    Maximum-Flux-Residual          L2-NORM 
          0                 1           2             3    7     1       0.1190673149E-01       6    8    1         0.3787994546E+00      0.1609891440E+01
          0                 2           2             3    7     1      -0.1147012704E-02       5    8    1         0.5515071210E-01      0.1945737454E+00
          0                 3           2             4    8     1       0.2408539703E-03       5    8    1         0.1274182531E-01      0.3016307263E-01
          0                 4           1             4    8     1       0.5811188216E-04       4    8    1         0.3078623796E-02      0.6836703622E-02

    ------------------------------------------------
       NWT REQUIRED            4 OUTER ITERATIONS 
       AND A TOTAL OF          7 INNER ITERATIONS.
    ------------------------------------------------

 NO OUTPUT CONTROL FOR STRESS PERIOD   16   TIME STEP   16
 
 SOLVING FOR HEAD 
                                                   Max.-Head-Change                         Max.-Flux-Residual
  Residual-Control   Outer-Iter.   Inner-Iter.     Column Row Layer    Maximum-Head-Change  Column Row Layer    Maximum-Flux-Residual          L2-NORM 
          0                 1           2             3    7     1       0.1179512021E-01       6    8    1         0.3756363665E+00      0.1598830468E+01
          0                 2           2             3    7     1      -0.1135991603E-02       5    8    1         0.5515458983E-01      0.1941129425E+00
          0                 3           2             4    8     1       0.2417915588E-03       4    8    1         0.1275339966E-01      0.3033023144E-01
          0                 4           1             4    8     1       0.5834446155E-04       4    8    1         0.3090687830E-02      0.6887666993E-02

    ------------------------------------------------
       NWT REQUIRED            4 OUTER ITERATIONS 
       AND A TOTAL OF          7 INNER ITERATIONS.
    ------------------------------------------------

 NO OUTPUT CONTROL FOR STRESS PERIOD   16   TIME STEP   17
 
 SOLVING FOR HEAD 
                                                   Max.-Head-Change                         Max.-Flux-Residual
  Residual-Control   Outer-Iter.   Inner-Iter.     Column Row Layer    Maximum-Head-Change  Column Row Layer    Maximum-Flux-Residual          L2-NORM 
          0                 1           2             3    7     1       0.1168582728E-01       6    8    1         0.3725657168E+00      0.1588467468E+01
          0                 2           2             3    7     1      -0.1125203092E-02       5    8    1         0.5515288655E-01      0.1936926880E+00
          0                 3           2             4    8     1       0.2426801935E-03       4    8    1         0.1279979775E-01      0.3048991481E-01
          0                 4           1             4    8     1       0.5856491005E-04       4    8    1         0.3102121766E-02      0.6936096931E-02

    ------------------------------------------------
       NWT REQUIRED            4 OUTER ITERATIONS 
       AND A TOTAL OF          7 INNER ITERATIONS.
    ------------------------------------------------

 NO OUTPUT CONTROL FOR STRESS PERIOD   16   TIME STEP   18
 
 SOLVING FOR HEAD 
                                                   Max.-Head-Change                         Max.-Flux-Residual
  Residual-Control   Outer-Iter.   Inner-Iter.     Column Row Layer    Maximum-Head-Change  Column Row Layer    Maximum-Flux-Residual          L2-NORM 
          0                 1           2             3    7     1       0.1157877818E-01       6    8    1         0.3695767495E+00      0.1578724526E+01
          0                 2           2             3    7     1      -0.1114639651E-02       5    8    1         0.5514778666E-01      0.1933086476E+00
          0                 3           2             4    8     1       0.2435279044E-03       4    8    1         0.1284407253E-01      0.3064318546E-01
          0                 4           1             4    8     1       0.5877517315E-04       4    8    1         0.3113028272E-02      0.6982312027E-02

    ------------------------------------------------
       NWT REQUIRED            4 OUTER ITERATIONS 
       AND A TOTAL OF          7 INNER ITERATIONS.
    ------------------------------------------------

 NO OUTPUT CONTROL FOR STRESS PERIOD   16   TIME STEP   19
 
 SOLVING FOR HEAD 
                                                   Max.-Head-Change                         Max.-Flux-Residual
  Residual-Control   Outer-Iter.   Inner-Iter.     Column Row Layer    Maximum-Head-Change  Column Row Layer    Maximum-Flux-Residual          L2-NORM 
          0                 1           2             3    7     1       0.1147414201E-01       6    8    1         0.3666667364E+00      0.1569527941E+01
          0                 2           2             3    7     1      -0.1104317528E-02       5    8    1         0.5513576761E-01      0.1929522794E+00
          0                 3           2             4    8     1       0.2443282598E-03       4    8    1         0.1288588377E-01      0.3078910594E-01
          0                 4           1             4    8     1       0.5897369291E-04       4    8    1         0.3123325085E-02      0.7026130444E-02

    ------------------------------------------------
       NWT REQUIRED            4 OUTER ITERATIONS 
       AND A TOTAL OF          7 INNER ITERATIONS.
    ------------------------------------------------

 NO OUTPUT CONTROL FOR STRESS PERIOD   16   TIME STEP   20
 
 SOLVING FOR HEAD 
                                                   Max.-Head-Change                         Max.-Flux-Residual
  Residual-Control   Outer-Iter.   Inner-Iter.     Column Row Layer    Maximum-Head-Change  Column Row Layer    Maximum-Flux-Residual          L2-NORM 
          0                 1           2             3    7     1       0.1137159710E-01       6    8    1         0.3638325680E+00      0.1560813600E+01
          0                 2           2             3    7     1      -0.1094205192E-02       5    8    1         0.5511902970E-01      0.1926191473E+00
          0                 3           2             4    8     1       0.2450827536E-03       4    8    1         0.1292530227E-01      0.3092771853E-01
          0                 4           1             4    8     1       0.5916088765E-04       4    8    1         0.3133032236E-02      0.7067685002E-02

    ------------------------------------------------
       NWT REQUIRED            4 OUTER ITERATIONS 
       AND A TOTAL OF          7 INNER ITERATIONS.
    ------------------------------------------------

 NO OUTPUT CONTROL FOR STRESS PERIOD   16   TIME STEP   21
 
 SOLVING FOR HEAD 
                                                   Max.-Head-Change                         Max.-Flux-Residual
  Residual-Control   Outer-Iter.   Inner-Iter.     Column Row Layer    Maximum-Head-Change  Column Row Layer    Maximum-Flux-Residual          L2-NORM 
          0                 1           2             3    7     1       0.1127131971E-01       6    8    1         0.3610789086E+00      0.1552533285E+01
          0                 2           2             3    7     1      -0.1084319563E-02       5    8    1         0.5509782822E-01      0.1923057662E+00
          0                 3           2             4    8     1       0.2457925535E-03       4    8    1         0.1296238744E-01      0.3105984272E-01
          0                 4           1             4    8     1       0.5933705548E-04       4    8    1         0.3142164841E-02      0.7107131901E-02

    ------------------------------------------------
       NWT REQUIRED            4 OUTER ITERATIONS 
       AND A TOTAL OF          7 INNER ITERATIONS.
    ------------------------------------------------

 NO OUTPUT CONTROL FOR STRESS PERIOD   16   TIME STEP   22
 
 SOLVING FOR HEAD 
                                                   Max.-Head-Change                         Max.-Flux-Residual
  Residual-Control   Outer-Iter.   Inner-Iter.     Column Row Layer    Maximum-Head-Change  Column Row Layer    Maximum-Flux-Residual          L2-NORM 
          0                 1           2             3    7     1       0.1117299459E-01       6    8    1         0.3583954412E+00      0.1544633532E+01
          0                 2           2             3    7     1      -0.1074629774E-02       5    8    1         0.5507239884E-01      0.1920077354E+00
          0                 3           2             4    8     1       0.2464651845E-03       4    8    1         0.1299754554E-01      0.3118503932E-01
          0                 4           1             4    8     1       0.5950396471E-04       4    8    1         0.3150818279E-02      0.7144477502E-02

    ------------------------------------------------
       NWT REQUIRED            4 OUTER ITERATIONS 
       AND A TOTAL OF          7 INNER ITERATIONS.
    ------------------------------------------------

 NO OUTPUT CONTROL FOR STRESS PERIOD   16   TIME STEP   23
 
 SOLVING FOR HEAD 
                                                   Max.-Head-Change                         Max.-Flux-Residual
  Residual-Control   Outer-Iter.   Inner-Iter.     Column Row Layer    Maximum-Head-Change  Column Row Layer    Maximum-Flux-Residual          L2-NORM 
          0                 1           2             3    7     1       0.1107655749E-01       6    8    1         0.3557795957E+00      0.1537079897E+01
          0                 2           2             3    7     1      -0.1065129759E-02       5    8    1         0.5504297050E-01      0.1917226083E+00
          0                 3           2             4    8     1       0.2470946828E-03       4    8    1         0.1303045264E-01      0.3130359937E-01
          0                 4           1             4    8     1       0.5966022659E-04       4    8    1         0.3158917168E-02      0.7179830115E-02

    ------------------------------------------------
       NWT REQUIRED            4 OUTER ITERATIONS 
       AND A TOTAL OF          7 INNER ITERATIONS.
    ------------------------------------------------

 NO OUTPUT CONTROL FOR STRESS PERIOD   16   TIME STEP   24
 
 SOLVING FOR HEAD 
                                                   Max.-Head-Change                         Max.-Flux-Residual
  Residual-Control   Outer-Iter.   Inner-Iter.     Column Row Layer    Maximum-Head-Change  Column Row Layer    Maximum-Flux-Residual          L2-NORM 
          0                 1           2             3    7     1       0.1098243382E-01       6    8    1         0.3532289432E+00      0.1529834639E+01
          0                 2           2             3    7     1      -0.1055859857E-02       5    8    1         0.5500967428E-01      0.1914474938E+00
          0                 3           2             4    8     1       0.2476829262E-03       4    8    1         0.1306119716E-01      0.3141570958E-01
          0                 4           1             4    8     1       0.5980636160E-04       4    8    1         0.3166486591E-02      0.7213253887E-02

    ------------------------------------------------
       NWT REQUIRED            4 OUTER ITERATIONS 
       AND A TOTAL OF          7 INNER ITERATIONS.
    ------------------------------------------------

 NO OUTPUT CONTROL FOR STRESS PERIOD   16   TIME STEP   25
 
 SOLVING FOR HEAD 
                                                   Max.-Head-Change                         Max.-Flux-Residual
  Residual-Control   Outer-Iter.   Inner-Iter.     Column Row Layer    Maximum-Head-Change  Column Row Layer    Maximum-Flux-Residual          L2-NORM 
          0                 1           2             3    7     1       0.1088982228E-01       6    8    1         0.3507411947E+00      0.1522867312E+01
          0                 2           2             3    7     1      -0.1046742770E-02       4    8    1         0.5503939208E-01      0.1911808383E+00
          0                 3           2             4    8     1       0.2482372086E-03       4    8    1         0.1309017783E-01      0.3152174682E-01
          0                 4           1             4    8     1       0.5994405923E-04       4    8    1         0.3173618522E-02      0.7244867622E-02

    ------------------------------------------------
       NWT REQUIRED            4 OUTER ITERATIONS 
       AND A TOTAL OF          7 INNER ITERATIONS.
    ------------------------------------------------

 NO OUTPUT CONTROL FOR STRESS PERIOD   16   TIME STEP   26
 
 SOLVING FOR HEAD 
                                                   Max.-Head-Change                         Max.-Flux-Residual
  Residual-Control   Outer-Iter.   Inner-Iter.     Column Row Layer    Maximum-Head-Change  Column Row Layer    Maximum-Flux-Residual          L2-NORM 
          0                 1           2             3    7     1       0.1079940099E-01       6    8    1         0.3483216274E+00      0.1516154053E+01
          0                 2           2             3    7     1      -0.1037843847E-02       4    8    1         0.5514279390E-01      0.1909186596E+00
          0                 3           2             4    8     1       0.2487509684E-03       4    8    1         0.1311704738E-01      0.3162098547E-01
          0                 4           1             4    8     1       0.6007173266E-04       4    8    1         0.3180229093E-02      0.7274514253E-02

    ------------------------------------------------
       NWT REQUIRED            4 OUTER ITERATIONS 
       AND A TOTAL OF          7 INNER ITERATIONS.
    ------------------------------------------------

 NO OUTPUT CONTROL FOR STRESS PERIOD   16   TIME STEP   27
 
 SOLVING FOR HEAD 
                                                   Max.-Head-Change                         Max.-Flux-Residual
  Residual-Control   Outer-Iter.   Inner-Iter.     Column Row Layer    Maximum-Head-Change  Column Row Layer    Maximum-Flux-Residual          L2-NORM 
          0                 1           2             3    7     1       0.1071061794E-01       6    8    1         0.3459600000E+00      0.1509662661E+01
          0                 2           2             4    8     1       0.1031943151E-02       4    8    1         0.5523655783E-01      0.1906602525E+00
          0                 3           2             4    8     1       0.2492200505E-03       4    8    1         0.1314155807E-01      0.3171410346E-01
          0                 4           1             4    8     1       0.6018855140E-04       4    8    1         0.3186268034E-02      0.7302415022E-02

    ------------------------------------------------
       NWT REQUIRED            4 OUTER ITERATIONS 
       AND A TOTAL OF          7 INNER ITERATIONS.
    ------------------------------------------------

 NO OUTPUT CONTROL FOR STRESS PERIOD   16   TIME STEP   28
 
 SOLVING FOR HEAD 
                                                   Max.-Head-Change                         Max.-Flux-Residual
  Residual-Control   Outer-Iter.   Inner-Iter.     Column Row Layer    Maximum-Head-Change  Column Row Layer    Maximum-Flux-Residual          L2-NORM 
          0                 1           2             3    7     1       0.1062366160E-01       6    8    1         0.3436616890E+00      0.1503388090E+01
          0                 2           2             4    8     1       0.1033700412E-02       4    8    1         0.5532398504E-01      0.1904062251E+00
          0                 3           2             4    8     1       0.2496581863E-03       4    8    1         0.1316446487E-01      0.3180175970E-01
          0                 4           1             4    8     1       0.6029766010E-04       4    8    1         0.3191907977E-02      0.7328707344E-02

    ------------------------------------------------
       NWT REQUIRED            4 OUTER ITERATIONS 
       AND A TOTAL OF          7 INNER ITERATIONS.
    ------------------------------------------------

 NO OUTPUT CONTROL FOR STRESS PERIOD   16   TIME STEP   29
 
 SOLVING FOR HEAD 
                                                   Max.-Head-Change                         Max.-Flux-Residual
  Residual-Control   Outer-Iter.   Inner-Iter.     Column Row Layer    Maximum-Head-Change  Column Row Layer    Maximum-Flux-Residual          L2-NORM 
          0                 1           2             3    7     1       0.1053823099E-01       6    8    1         0.3357987848E+00      0.1480690792E+01
          0                 2           2             4    8     1       0.1035296271E-02       4    8    1         0.5540330166E-01      0.1888423794E+00
          0                 3           2             4    8     1       0.2500550306E-03       4    8    1         0.1318526819E-01      0.3184190081E-01
          0                 4           1             4    8     1       0.6039625975E-04       4    8    1         0.3197011911E-02      0.7351734256E-02

    ------------------------------------------------
       NWT REQUIRED            4 OUTER ITERATIONS 
       AND A TOTAL OF          7 INNER ITERATIONS.
    ------------------------------------------------

 NO OUTPUT CONTROL FOR STRESS PERIOD   16   TIME STEP   30



 STREAM LISTING     PERIOD     16   STEP       30

 LAYER ROW COL. STREAM  RCH.  FLOW INTO     FLOW TO   FLOW OUT OF   OVRLND.     DIRECT     STREAM       STREAM     STREAM     STREAM   STREAMBED  STREAMBED
                SEG.NO.  NO.  STRM. RCH.    AQUIFER    STRM. RCH.    RUNOFF     PRECIP       ET          HEAD       DEPTH      WIDTH   CONDCTNC.   GRADIENT

   1    1    1     1     1    3.3171E+01  2.7949E-01   3.2891E+01  0.000E+00  0.000E+00  0.000E+00  1.09432E+03  1.277E+00  1.452E+01  6.535E-02  1.426E+00
   1    2    2     1     2    3.2891E+01  4.3266E-01   3.2458E+01  0.000E+00  0.000E+00  0.000E+00  1.08933E+03  1.274E+00  1.446E+01  1.012E-01  1.425E+00
   1    3    3     1     3    3.2458E+01  3.6882E-01   3.2090E+01  0.000E+00  0.000E+00  0.000E+00  1.08369E+03  1.270E+00  1.439E+01  8.637E-02  1.423E+00
   1    3    4     1     4    3.2090E+01  3.3948E-01   3.1750E+01  0.000E+00  0.000E+00  0.000E+00  1.07868E+03  1.267E+00  1.433E+01  7.955E-02  1.422E+00
   1    4    5     2     1    2.9750E+01  3.3819E-01   2.9412E+01  0.000E+00  0.000E+00  0.000E+00  1.07327E+03  1.336E+00  1.200E+01  7.800E-02  1.445E+00
   1    5    6     2     2    2.9412E+01  2.5966E-01   2.9152E+01  0.000E+00  0.000E+00  0.000E+00  1.06784E+03  1.328E+00  1.200E+01  6.000E-02  1.443E+00
   1    6    6     2     3    2.9152E+01  2.5924E-01   2.8893E+01  0.000E+00  0.000E+00  0.000E+00  1.06311E+03  1.321E+00  1.200E+01  6.000E-02  1.440E+00
   1    7    6     2     4    2.8893E+01  2.5881E-01   2.8634E+01  0.000E+00  0.000E+00  0.000E+00  1.05839E+03  1.314E+00  1.200E+01  6.000E-02  1.438E+00
   1    8    6     2     5    2.8634E+01  2.5839E-01   2.8376E+01  0.000E+00  0.000E+00  0.000E+00  1.05367E+03  1.306E+00  1.200E+01  6.000E-02  1.435E+00
   1    3    5     3     1    2.0000E+00  2.8252E-01   1.7175E+00  0.000E+00  0.000E+00  0.000E+00  1.07555E+03  1.909E+00  9.636E+00  7.227E-02  1.955E+00
   1    3    6     3     2    1.7175E+00  2.4905E-01   1.4684E+00  0.000E+00  0.000E+00  0.000E+00  1.07264E+03  1.727E+00  8.909E+00  6.682E-02  1.864E+00
   1    3    7     3     3    1.4684E+00  1.9718E-01   1.2712E+00  0.000E+00  0.000E+00  0.000E+00  1.06987E+03  1.555E+00  8.218E+00  5.547E-02  1.777E+00
   1    4    8     3     4    1.2712E+00  2.2567E-01   1.0456E+00  0.000E+00  0.000E+00  0.000E+00  1.06682E+03  1.364E+00  7.455E+00  6.709E-02  1.682E+00
   1    5    8     3     5    1.0456E+00  1.5790E-01   8.8768E-01  0.000E+00  0.000E+00  0.000E+00  1.06362E+03  1.164E+00  6.655E+00  4.991E-02  1.582E+00
   1    6    8     3     6    8.8768E-01  5.5980E-02   8.3170E-01  0.000E+00  0.000E+00  0.000E+00  1.06158E+03  1.036E+00  6.145E+00  1.844E-02  1.518E+00
   1    5   10     4     1    1.0000E+01  9.0919E-02   9.9091E+00  0.000E+00  0.000E+00  0.000E+00  1.07836E+03  6.368E-01  1.000E+01  2.500E-02  1.212E+00
   1    5    9     4     2    9.9091E+00  1.8158E-01   9.7275E+00  0.000E+00  0.000E+00  0.000E+00  1.07154E+03  6.315E-01  1.000E+01  5.000E-02  1.211E+00
   1    6    8     4     3    9.7275E+00  1.2689E-01   9.6006E+00  0.000E+00  0.000E+00  0.000E+00  1.06381E+03  6.256E-01  1.000E+01  3.500E-02  1.209E+00
   1    6    8     5     1    1.0432E+01  2.2686E-01   1.0205E+01  0.000E+00  0.000E+00  0.000E+00  1.05868E+03  6.790E-01  1.542E+01  6.166E-02  1.226E+00
   1    7    7     5     2    1.0205E+01  2.7894E-01   9.9265E+00  0.000E+00  0.000E+00  0.000E+00  1.05417E+03  6.732E-01  1.519E+01  7.594E-02  1.224E+00
   1    8    7     5     3    9.9265E+00  1.9221E-01   9.7343E+00  0.000E+00  0.000E+00  0.000E+00  1.04992E+03  6.676E-01  1.497E+01  5.241E-02  1.223E+00
   1    8    6     5     4    9.7343E+00  1.3577E-01   9.5985E+00  0.000E+00  0.000E+00  0.000E+00  1.04691E+03  6.637E-01  1.482E+01  3.706E-02  1.221E+00
   1    9    6     6     1    3.7974E+01  2.7395E-01   3.7700E+01  0.000E+00  0.000E+00  0.000E+00  1.04429E+03  1.566E+00  1.200E+01  6.000E-02  1.522E+00
   1   10    7     6     2    3.7700E+01  2.7354E-01   3.7427E+01  0.000E+00  0.000E+00  0.000E+00  1.03974E+03  1.559E+00  1.200E+01  6.000E-02  1.520E+00
   1   11    7     6     3    3.7427E+01  2.7313E-01   3.7154E+01  0.000E+00  0.000E+00  0.000E+00  1.03519E+03  1.552E+00  1.200E+01  6.000E-02  1.517E+00
   1   12    7     6     4    3.7154E+01  2.7272E-01   3.6881E+01  0.000E+00  0.000E+00  0.000E+00  1.03064E+03  1.545E+00  1.200E+01  6.000E-02  1.515E+00
   1   13    7     6     5    3.6881E+01  1.9527E-02   3.6861E+01  0.000E+00  0.000E+00  0.000E+00  1.02745E+03  1.542E+00  1.200E+01  2.400E-02  2.712E-01
   1   14    9     7     1    1.5000E+02  1.3735E+00   1.4863E+02  0.000E+00  0.000E+00  0.000E+00  1.03987E+03  2.288E+00  5.529E+01  5.593E-01  8.186E-01
   1   13    8     7     2    1.4863E+02  1.9641E+00   1.4666E+02  0.000E+00  0.000E+00  0.000E+00  1.03478E+03  2.279E+00  5.525E+01  6.147E-01  1.065E+00
   1   13    7     7     3    1.4666E+02  1.7037E+00   1.4496E+02  0.000E+00  0.000E+00  0.000E+00  1.02969E+03  2.269E+00  5.521E+01  5.584E-01  1.017E+00
   1   13    6     8     1    1.8182E+02  1.2068E+00   1.8061E+02  0.000E+00  0.000E+00  0.000E+00  1.02490E+03  3.024E+00  4.385E+01  4.468E-01  9.003E-01
   1   13    5     8     2    1.8061E+02  4.2292E-01   1.8019E+02  0.000E+00  0.000E+00  0.000E+00  1.01864E+03  3.019E+00  4.377E+01  4.460E-01  3.161E-01
   1   13    4     8     3    1.8019E+02 -1.6948E+00   1.8189E+02  0.000E+00  0.000E+00  0.000E+00  1.01240E+03  3.023E+00  4.383E+01  4.466E+00 -1.265E-01
   1   13    3     8     4    1.8189E+02 -3.2989E+00   1.8518E+02  0.000E+00  0.000E+00  0.000E+00  1.00616E+03  3.038E+00  4.405E+01  4.489E+00 -2.449E-01
   1   13    2     8     5    1.8518E+02 -2.4900E+00   1.8767E+02  0.000E+00  0.000E+00  0.000E+00  9.99931E+02  3.056E+00  4.431E+01  4.516E+00 -1.838E-01
   1   13    1     8     6    1.8767E+02 -1.9203E+00   1.8959E+02  0.000E+00  0.000E+00  0.000E+00  9.94945E+02  3.070E+00  4.451E+01  2.721E+00 -2.352E-01
   1    8    6     9     1    0.0000E+00  0.0000E+00   0.0000E+00  0.000E+00  0.000E+00  0.000E+00  1.07875E+03  0.000E+00  4.000E+00  0.000E+00  1.000E+00
   1    8    5     9     2    0.0000E+00  0.0000E+00   0.0000E+00  0.000E+00  0.000E+00  0.000E+00  1.07825E+03  0.000E+00  4.000E+00  0.000E+00  1.000E+00





UNSATURATED ZONE PACKAGE VOLUMETRIC BUDGET FOR  TIME STEP    30 STRESS PERIOD   16
  ------------------------------------------------------------------------------



     CUMULATIVE VOLUMES      L**3       RATES FOR THIS TIME STEP      L**3/T
     ------------------                 ------------------------

           IN:                                      IN:
           ---                                      ---
        INFILTRATION =  1941337596.4708          INFILTRATION =           0.8475

          OUT:                                     OUT:
          ----                                     ----
              UZF ET =   438210491.6762                UZF ET =           0.7500
        UZF RECHARGE =  1100026209.4082          UZF RECHARGE =           3.3155

            IN - OUT =   403100895.3864              IN - OUT =          -3.2180

          STORAGE:                                 STORAGE:
          --------                                 --------
      STORAGE CHANGE =   403101287.7877        STORAGE CHANGE =          -3.2180

 PERCENT DISCREPANCY IS DIFFERENCE BETWEEN IN-OUT MINUS CHANGE IN STORAGE
 DIVIDED BY THE AVERAGE OF IN AND OUT TIMES 100

 PERCENT DISCREPANCY =          -0.00     PERCENT DISCREPANCY =           0.00






1
  VOLUMETRIC BUDGET FOR AGRICULTURAL FIELDS AT  END OF TIME STEP   30, STRESS PERIOD  16
  ------------------------------------------------------------------------------

     CUMULATIVE VOLUMES      L**3       RATES FOR THIS TIME STEP      L**3/T
     ------------------                 ------------------------

           IN:                                      IN:
           ---                                      ---
               AG WELLS  =  1630378752.0000                 AG WELLS  =           0.0000
      DIVERSION SEGMENTS =   277447584.0000        DIVERSION SEGMENTS =           0.0000
           GW IRRIGATION =           0.0000             GW IRRIGATION =           0.0000
           SW IRRIGATION =           0.0000             SW IRRIGATION =           0.0000
        SYSTEM LOSSES GW =           0.0000          SYSTEM LOSSES GW =           0.0000
        SYSTEM LOSSES SW =           0.0000          SYSTEM LOSSES SW =           0.0000

                TOTAL IN =  1907826304.0000                  TOTAL IN =           0.0000

          OUT:                                     OUT:
          ----                                     ----
               AG WELLS  =           0.0000                 AG WELLS  =           0.0000
      DIVERSION SEGMENTS =           0.0000        DIVERSION SEGMENTS =           0.0000
           GW IRRIGATION =  1630378752.0000             GW IRRIGATION =           0.0000
           SW IRRIGATION =   277452768.0000             SW IRRIGATION =           0.0000
        SYSTEM LOSSES GW =           0.0000          SYSTEM LOSSES GW =           0.0000
        SYSTEM LOSSES SW =           0.0000          SYSTEM LOSSES SW =           0.0000

               TOTAL OUT =  1907831552.0000                 TOTAL OUT =           0.0000

                IN - OUT =       -5248.0000                  IN - OUT =           0.0000

     PERCENT DISCREPANCY =          -0.00         PERCENT DISCREPANCY =           0.00



1
  VOLUMETRIC BUDGET FOR ENTIRE MODEL AT END OF TIME STEP   30, STRESS PERIOD  16
  ------------------------------------------------------------------------------

     CUMULATIVE VOLUMES      L**3       RATES FOR THIS TIME STEP      L**3/T
     ------------------                 ------------------------

           IN:                                      IN:
           ---                                      ---
             STORAGE     =  1925655040.0000               STORAGE     =           2.5032
       CONSTANT HEAD     =           0.0000         CONSTANT HEAD     =           0.0000
     HEAD DEP BOUNDS     =    11386550.0000       HEAD DEP BOUNDS     =           0.2883
      STREAM LEAKAGE     =   466192416.0000        STREAM LEAKAGE     =          12.9802
        UZF RECHARGE     =  1100026368.0000          UZF RECHARGE     =           3.3155
               GW ET     =           0.0000                 GW ET     =           0.0000
     SURFACE LEAKAGE     =           0.0000       SURFACE LEAKAGE     =           0.0000
           AG WELLS      =           0.0000             AG WELLS      =           0.0000

                TOTAL IN =  3503260416.0000                  TOTAL IN =          19.0872

          OUT:                                     OUT:
          ----                                     ----
             STORAGE     =  1463552640.0000               STORAGE     =           9.3881
       CONSTANT HEAD     =           0.0000         CONSTANT HEAD     =           0.0000
     HEAD DEP BOUNDS     =    11373261.0000       HEAD DEP BOUNDS     =           0.2907
      STREAM LEAKAGE     =   397894336.0000        STREAM LEAKAGE     =           9.4041
        UZF RECHARGE     =           0.0000          UZF RECHARGE     =           0.0000
               GW ET     =           0.0000                 GW ET     =           0.0000
     SURFACE LEAKAGE     =           0.0000       SURFACE LEAKAGE     =           0.0000
           AG WELLS      =  1630378752.0000             AG WELLS      =           0.0000

               TOTAL OUT =  3503198976.0000                 TOTAL OUT =          19.0828

                IN - OUT =       61440.0000                  IN - OUT =       4.3812E-03

     PERCENT DISCREPANCY =           0.00         PERCENT DISCREPANCY =           0.02






         TIME SUMMARY AT END OF TIME STEP   30 IN STRESS PERIOD   16
                    SECONDS     MINUTES      HOURS       DAYS        YEARS
                    -----------------------------------------------------------
   TIME STEP LENGTH  87667.      1461.1      24.352      1.0147     2.77799E-03
 STRESS PERIOD TIME 2.63000E+06  43833.      730.56      30.440     8.33397E-02
         TOTAL TIME 3.95364E+07 6.58940E+05  10982.      457.60      1.2528    
1
1
                            STRESS PERIOD NO.   17, LENGTH =   2630000.    
                            -----------------------------------------------

                              NUMBER OF TIME STEPS =    30

                               MULTIPLIER FOR DELT =     1.000

                            INITIAL TIME STEP SIZE =   87666.66    

 REUSING NON-PARAMETER GHB CELLS FROM LAST STRESS PERIOD

      2 GHB CELLS

 REUSING STREAM SEGMENT DATA FROM LAST STRESS PERIOD



            AREAL INFILTRATION RATE
 READING ON UNIT   19 WITH FORMAT: (FREE)              

            1           2           3           4           5           6           7           8           9          10
 ........................................................................................................................
   1   1.0000E-10  2.0000E-10   0.000       0.000       0.000       0.000       0.000       0.000       0.000       0.000    
   2   2.0000E-10  1.0000E-10  2.0000E-10   0.000       0.000      8.0000E-10  8.0000E-10  5.0000E-10   0.000       0.000    
   3    0.000      5.0000E-10  1.0000E-10  1.0000E-10  8.0000E-10  8.0000E-10  5.0000E-10  5.0000E-10   0.000       0.000    
   4   8.0000E-10  5.0000E-10  1.0000E-10  1.0000E-10  1.0000E-10  1.0000E-10  1.0000E-10  1.0000E-10  2.0000E-10   0.000    
   5   8.0000E-10  5.0000E-10  1.0000E-10  1.0000E-10  1.0000E-10  1.0000E-10  1.0000E-10  1.0000E-10  1.0000E-10  1.0000E-10
   6   8.0000E-10  5.0000E-10  5.0000E-10  2.0000E-10  2.0000E-10  1.0000E-10  1.0000E-10  1.0000E-10  1.0000E-10  5.0000E-10
   7   8.0000E-10  5.0000E-10  5.0000E-10  2.0000E-10  2.0000E-10  1.0000E-10  1.0000E-10  2.0000E-10  2.0000E-10   0.000    
   8    0.000      5.0000E-10  5.0000E-10  2.0000E-10  2.0000E-10  1.0000E-10  1.0000E-10  2.0000E-10  5.0000E-10   0.000    
   9    0.000      5.0000E-10  5.0000E-10  2.0000E-10  2.0000E-10  1.0000E-10  1.0000E-10  2.0000E-10  5.0000E-10   0.000    
  10    0.000      5.0000E-10  5.0000E-10  2.0000E-10  2.0000E-10  1.0000E-10  1.0000E-10  2.0000E-10  5.0000E-10  8.0000E-10
  11    0.000      1.0000E-10  1.0000E-10  1.0000E-10  1.0000E-10  1.0000E-10  1.0000E-10  2.0000E-10  5.0000E-10   0.000    
  12   1.0000E-10  1.0000E-10  1.0000E-10  1.0000E-10  1.0000E-10  1.0000E-10  1.0000E-10  1.0000E-10  2.0000E-10   0.000    
  13   1.0000E-10  1.0000E-10  2.0000E-10  2.0000E-10  2.0000E-10  2.0000E-10  2.0000E-10  1.0000E-10  1.0000E-10   0.000    
  14    0.000      2.0000E-10  5.0000E-10  5.0000E-10  5.0000E-10  5.0000E-10  5.0000E-10  2.0000E-10  1.0000E-10   0.000    
  15    0.000       0.000      8.0000E-10  8.0000E-10  8.0000E-10  8.0000E-10   0.000       0.000       0.000       0.000    

                  ET RATE =  2.500000E-08

 USING ET EXTINCTION DEPTH FROM PREVIOUS STRESS PERIOD. CURRENT PERIOD IS:      17

 USING EXTINCTION WATER CONTENT FROM PREVIOUS STRESS PERIOD. CURRENT PERIOD IS:      17

 USING AIR ENTRY PRESSURE FROM PREVIOUS STRESS PERIOD. CURRENT PERIOD IS:      17

 USING ROOT PRESSURE HEAD FROM PREVIOUS STRESS PERIOD. CURRENT PERIOD IS:      17

 USING ROOT ACTIVITY FROM PREVIOUS STRESS PERIOD. CURRENT PERIOD IS:      17

 PROCESSING AG STRESS PERIOD DATA

 READING AG STRESS PERIOD DATA

 READING IRRIGATION SEGMENT

 READING IRRIGATION WELL

 READING SUPPLEMENTAL WELL

 END PROCESSING AG STRESS PERIOD DATA OPTIONS
 
 SOLVING FOR HEAD 
                                                   Max.-Head-Change                         Max.-Flux-Residual
  Residual-Control   Outer-Iter.   Inner-Iter.     Column Row Layer    Maximum-Head-Change  Column Row Layer    Maximum-Flux-Residual          L2-NORM 
          0                 1           2             3    7     1       0.1045451906E-01       6    8    1         0.3253634763E+00      0.1501760233E+01
          0                 2           2             4    7     1      -0.1442121624E+01       4    6    1        -0.7744978565E+02      0.1897090121E+03
          0                 3           2             4    7     1       0.1478837507E+00       5    8    1         0.8191395882E+01      0.2001222596E+02
          0                 4           2             4    7     1      -0.1018861230E+00       5    8    1        -0.5779401173E+01      0.1415442986E+02
          0                 5           2             4    7     1       0.1256237768E-02       5    8    1         0.7324000958E-01      0.1793724473E+00
          0                 6           1             4    7     1       0.1847577228E-04       5    8    1         0.1077146552E-02      0.2638047093E-02

    ------------------------------------------------
       NWT REQUIRED            6 OUTER ITERATIONS 
       AND A TOTAL OF         11 INNER ITERATIONS.
    ------------------------------------------------

 NO OUTPUT CONTROL FOR STRESS PERIOD   17   TIME STEP    1
 
 SOLVING FOR HEAD 
                                                   Max.-Head-Change                         Max.-Flux-Residual
  Residual-Control   Outer-Iter.   Inner-Iter.     Column Row Layer    Maximum-Head-Change  Column Row Layer    Maximum-Flux-Residual          L2-NORM 
          0                 1           2             5    8     1       0.3784756062E-01       5    8    1         0.2084455927E+01      0.4176034210E+01
          0                 2           2             5    6     1      -0.1213985653E+00       5    8    1        -0.6687598079E+01      0.1620560545E+02
          0                 3           2             4    7     1       0.7917313463E-01       5    8    1         0.4381426015E+01      0.1071836469E+02
          0                 4           2             4    7     1      -0.1173981475E+00       5    8    1        -0.6658300520E+01      0.1630891639E+02
          0                 5           2             4    7     1       0.1447487373E-02       4    7    1         0.8436283282E-01      0.2066886764E+00
          0                 6           1             4    7     1       0.2128852102E-04       5    8    1         0.1243161194E-02      0.3048224459E-02

    ------------------------------------------------
       NWT REQUIRED            6 OUTER ITERATIONS 
       AND A TOTAL OF         11 INNER ITERATIONS.
    ------------------------------------------------

 NO OUTPUT CONTROL FOR STRESS PERIOD   17   TIME STEP    2
 
 SOLVING FOR HEAD 
                                                   Max.-Head-Change                         Max.-Flux-Residual
  Residual-Control   Outer-Iter.   Inner-Iter.     Column Row Layer    Maximum-Head-Change  Column Row Layer    Maximum-Flux-Residual          L2-NORM 
          0                 1           2             5    8     1       0.4061461462E-01       5    8    1         0.2235284228E+01      0.4509852282E+01
          0                 2           2             5    6     1      -0.1216642552E+00       5    8    1        -0.6702680743E+01      0.1623740967E+02
          0                 3           2             4    7     1       0.7918388262E-01       5    8    1         0.4382487212E+01      0.1072053795E+02
          0                 4           2             4    7     1      -0.1173988932E+00       5    8    1        -0.6658344438E+01      0.1630900627E+02
          0                 5           2             4    7     1       0.1447496568E-02       4    7    1         0.8436313332E-01      0.2066896248E+00
          0                 6           1             4    7     1       0.2128865600E-04       5    8    1         0.1243168816E-02      0.3053645220E-02

    ------------------------------------------------
       NWT REQUIRED            6 OUTER ITERATIONS 
       AND A TOTAL OF         11 INNER ITERATIONS.
    ------------------------------------------------

 NO OUTPUT CONTROL FOR STRESS PERIOD   17   TIME STEP    3
 
 SOLVING FOR HEAD 
                                                   Max.-Head-Change                         Max.-Flux-Residual
  Residual-Control   Outer-Iter.   Inner-Iter.     Column Row Layer    Maximum-Head-Change  Column Row Layer    Maximum-Flux-Residual          L2-NORM 
          0                 1           2             5    8     1       0.4325470950E-01       5    8    1         0.2379084192E+01      0.4836177373E+01
          0                 2           2             5    6     1      -0.1219185700E+00       5    8    1        -0.6717060564E+01      0.1626824187E+02
          0                 3           2             4    7     1       0.7919475756E-01       5    8    1         0.4383498879E+01      0.1072248624E+02
          0                 4           2             4    7     1      -0.1173996517E+00       5    8    1        -0.6658386298E+01      0.1630909257E+02
          0                 5           2             4    7     1       0.1447505920E-02       4    7    1         0.8436343791E-01      0.2066904963E+00
          0                 6           1             4    7     1       0.2128879400E-04       5    8    1         0.1243176105E-02      0.3048249241E-02

    ------------------------------------------------
       NWT REQUIRED            6 OUTER ITERATIONS 
       AND A TOTAL OF         11 INNER ITERATIONS.
    ------------------------------------------------

 NO OUTPUT CONTROL FOR STRESS PERIOD   17   TIME STEP    4
 
 SOLVING FOR HEAD 
                                                   Max.-Head-Change                         Max.-Flux-Residual
  Residual-Control   Outer-Iter.   Inner-Iter.     Column Row Layer    Maximum-Head-Change  Column Row Layer    Maximum-Flux-Residual          L2-NORM 
          0                 1           2             5    8     1       0.4577524427E-01       5    8    1         0.2516269614E+01      0.5154001072E+01
          0                 2           2             5    6     1      -0.1221621416E+00       5    8    1        -0.6730778921E+01      0.1629813703E+02
          0                 3           2             4    7     1       0.7920573455E-01       5    8    1         0.4384463934E+01      0.1072453728E+02
          0                 4           2             4    7     1      -0.1174004211E+00       5    8    1        -0.6658426222E+01      0.1630917686E+02
          0                 5           2             4    7     1       0.1447515408E-02       4    7    1         0.8436374584E-01      0.2066914371E+00
          0                 6           1             4    7     1       0.2128893313E-04       5    8    1         0.1243183037E-02      0.3048263173E-02

    ------------------------------------------------
       NWT REQUIRED            6 OUTER ITERATIONS 
       AND A TOTAL OF         11 INNER ITERATIONS.
    ------------------------------------------------

 NO OUTPUT CONTROL FOR STRESS PERIOD   17   TIME STEP    5
 
 SOLVING FOR HEAD 
                                                   Max.-Head-Change                         Max.-Flux-Residual
  Residual-Control   Outer-Iter.   Inner-Iter.     Column Row Layer    Maximum-Head-Change  Column Row Layer    Maximum-Flux-Residual          L2-NORM 
          0                 1           2             5    8     1       0.4818379735E-01       5    8    1         0.2647263299E+01      0.5462915774E+01
          0                 2           2             5    6     1      -0.1223955640E+00       5    8    1        -0.6743878098E+01      0.1632714280E+02
          0                 3           2             4    7     1       0.7921679265E-01       5    8    1         0.4385383762E+01      0.1072652716E+02
          0                 4           2             4    7     1      -0.1174011996E+00       5    8    1        -0.6658464214E+01      0.1630925853E+02
          0                 5           2             4    7     1       0.1447525007E-02       4    7    1         0.8436405646E-01      0.2066923725E+00
          0                 6           1             4    7     1       0.2128907449E-04       5    8    1         0.1243190433E-02      0.3048277492E-02

    ------------------------------------------------
       NWT REQUIRED            6 OUTER ITERATIONS 
       AND A TOTAL OF         11 INNER ITERATIONS.
    ------------------------------------------------

 NO OUTPUT CONTROL FOR STRESS PERIOD   17   TIME STEP    6
 
 SOLVING FOR HEAD 
                                                   Max.-Head-Change                         Max.-Flux-Residual
  Residual-Control   Outer-Iter.   Inner-Iter.     Column Row Layer    Maximum-Head-Change  Column Row Layer    Maximum-Flux-Residual          L2-NORM 
          0                 1           2             5    8     1       0.5048670283E-01       5    8    1         0.2772419043E+01      0.5762714519E+01
          0                 2           2             5    6     1      -0.1226193791E+00       5    8    1        -0.6756393475E+01      0.1635528549E+02
          0                 3           2             4    7     1       0.7922791072E-01       5    8    1         0.4386259899E+01      0.1072845219E+02
          0                 4           2             4    7     1      -0.1174019858E+00       5    8    1        -0.6658500318E+01      0.1630933769E+02
          0                 5           2             4    7     1       0.1447534700E-02       4    7    1         0.8436436915E-01      0.2066932784E+00
          0                 6           1             4    7     1       0.2128921686E-04       5    8    1         0.1243197805E-02      0.3048290732E-02

    ------------------------------------------------
       NWT REQUIRED            6 OUTER ITERATIONS 
       AND A TOTAL OF         11 INNER ITERATIONS.
    ------------------------------------------------

 NO OUTPUT CONTROL FOR STRESS PERIOD   17   TIME STEP    7
 
 SOLVING FOR HEAD 
                                                   Max.-Head-Change                         Max.-Flux-Residual
  Residual-Control   Outer-Iter.   Inner-Iter.     Column Row Layer    Maximum-Head-Change  Column Row Layer    Maximum-Flux-Residual          L2-NORM 
          0                 1           2             5    8     1       0.5269027259E-01       5    8    1         0.2892088769E+01      0.6053302892E+01
          0                 2           2             5    6     1      -0.1228341127E+00       5    8    1        -0.6768360246E+01      0.1638260200E+02
          0                 3           2             4    7     1       0.7923906973E-01       5    8    1         0.4387097590E+01      0.1073032519E+02
          0                 4           2             4    7     1      -0.1174027782E+00       5    8    1        -0.6658534842E+01      0.1630941457E+02
          0                 5           2             4    7     1       0.1447544470E-02       4    7    1         0.8436467949E-01      0.2066941539E+00
          0                 6           1             4    7     1       0.2128936058E-04       5    8    1         0.1243203996E-02      0.3048302003E-02

    ------------------------------------------------
       NWT REQUIRED            6 OUTER ITERATIONS 
       AND A TOTAL OF         11 INNER ITERATIONS.
    ------------------------------------------------

 NO OUTPUT CONTROL FOR STRESS PERIOD   17   TIME STEP    8
 
 SOLVING FOR HEAD 
                                                   Max.-Head-Change                         Max.-Flux-Residual
  Residual-Control   Outer-Iter.   Inner-Iter.     Column Row Layer    Maximum-Head-Change  Column Row Layer    Maximum-Flux-Residual          L2-NORM 
          0                 1           2             5    8     1       0.5480037522E-01       5    8    1         0.3006599752E+01      0.6334813295E+01
          0                 2           2             5    6     1      -0.1230402593E+00       5    8    1        -0.6779811139E+01      0.1640912630E+02
          0                 3           2             4    7     1       0.7925025322E-01       5    8    1         0.4387899170E+01      0.1073214512E+02
          0                 4           2             4    7     1      -0.1174035755E+00       5    8    1        -0.6658567873E+01      0.1630948924E+02
          0                 5           2             4    7     1       0.1447554300E-02       4    7    1         0.8436499240E-01      0.2066949061E+00
          0                 6           1             4    7     1       0.2128950519E-04       5    8    1         0.1243209915E-02      0.3048320230E-02

    ------------------------------------------------
       NWT REQUIRED            6 OUTER ITERATIONS 
       AND A TOTAL OF         11 INNER ITERATIONS.
    ------------------------------------------------

 NO OUTPUT CONTROL FOR STRESS PERIOD   17   TIME STEP    9
 
 SOLVING FOR HEAD 
                                                   Max.-Head-Change                         Max.-Flux-Residual
  Residual-Control   Outer-Iter.   Inner-Iter.     Column Row Layer    Maximum-Head-Change  Column Row Layer    Maximum-Flux-Residual          L2-NORM 
          0                 1           2             5    8     1       0.5682247524E-01       5    8    1         0.3116256283E+01      0.6607453328E+01
          0                 2           2             5    6     1      -0.1232382816E+00       5    8    1        -0.6790776584E+01      0.1643488896E+02
          0                 3           2             4    7     1       0.7926144427E-01       5    8    1         0.4388666768E+01      0.1073391296E+02
          0                 4           2             4    7     1      -0.1174043764E+00       5    8    1        -0.6658599499E+01      0.1630956178E+02
          0                 5           2             4    7     1       0.1447564174E-02       4    7    1         0.8436530586E-01      0.2066957369E+00
          0                 6           1             4    7     1       0.2128965059E-04       5    8    1         0.1243215585E-02      0.3048319521E-02

    ------------------------------------------------
       NWT REQUIRED            6 OUTER ITERATIONS 
       AND A TOTAL OF         11 INNER ITERATIONS.
    ------------------------------------------------

 NO OUTPUT CONTROL FOR STRESS PERIOD   17   TIME STEP   10
 
 SOLVING FOR HEAD 
                                                   Max.-Head-Change                         Max.-Flux-Residual
  Residual-Control   Outer-Iter.   Inner-Iter.     Column Row Layer    Maximum-Head-Change  Column Row Layer    Maximum-Flux-Residual          L2-NORM 
          0                 1           2             5    8     1       0.5876152134E-01       5    8    1         0.3221333884E+01      0.6871480250E+01
          0                 2           2             5    6     1      -0.1234285992E+00       5    8    1        -0.6801284135E+01      0.1645992132E+02
          0                 3           2             4    7     1       0.7927262921E-01       5    8    1         0.4389402315E+01      0.1073563167E+02
          0                 4           2             4    7     1      -0.1174051800E+00       5    8    1        -0.6658629801E+01      0.1630963230E+02
          0                 5           2             4    7     1       0.1447574080E-02       4    7    1         0.8436561948E-01      0.2066965279E+00
          0                 6           1             4    7     1       0.2128979588E-04       5    8    1         0.1243221011E-02      0.3048330085E-02

    ------------------------------------------------
       NWT REQUIRED            6 OUTER ITERATIONS 
       AND A TOTAL OF         11 INNER ITERATIONS.
    ------------------------------------------------

 NO OUTPUT CONTROL FOR STRESS PERIOD   17   TIME STEP   11
 
 SOLVING FOR HEAD 
                                                   Max.-Head-Change                         Max.-Flux-Residual
  Residual-Control   Outer-Iter.   Inner-Iter.     Column Row Layer    Maximum-Head-Change  Column Row Layer    Maximum-Flux-Residual          L2-NORM 
          0                 1           2             5    8     1       0.6062226118E-01       5    8    1         0.3322096976E+01      0.7127182584E+01
          0                 2           2             5    6     1      -0.1236116190E+00       5    8    1        -0.6811360233E+01      0.1648425104E+02
          0                 3           2             4    7     1       0.7928379464E-01       5    8    1         0.4390107660E+01      0.1073730260E+02
          0                 4           2             4    7     1      -0.1174059850E+00       5    8    1        -0.6658658855E+01      0.1630970087E+02
          0                 5           2             4    7     1       0.1447584005E-02       4    7    1         0.8436593283E-01      0.2066973160E+00
          0                 6           1             4    7     1       0.2128994217E-04       5    8    1         0.1243226233E-02      0.3048339142E-02

    ------------------------------------------------
       NWT REQUIRED            6 OUTER ITERATIONS 
       AND A TOTAL OF         11 INNER ITERATIONS.
    ------------------------------------------------

 NO OUTPUT CONTROL FOR STRESS PERIOD   17   TIME STEP   12
 
 SOLVING FOR HEAD 
                                                   Max.-Head-Change                         Max.-Flux-Residual
  Residual-Control   Outer-Iter.   Inner-Iter.     Column Row Layer    Maximum-Head-Change  Column Row Layer    Maximum-Flux-Residual          L2-NORM 
          0                 1           2             5    8     1       0.6240898013E-01       5    8    1         0.3418783916E+01      0.7374851354E+01
          0                 2           2             5    6     1      -0.1237877231E+00       5    8    1        -0.6821028715E+01      0.1650790524E+02
          0                 3           2             4    7     1       0.7929492741E-01       5    8    1         0.4390784471E+01      0.1073892859E+02
          0                 4           2             4    7     1      -0.1174067906E+00       5    8    1        -0.6658686729E+01      0.1630976757E+02
          0                 5           2             4    7     1       0.1447593936E-02       4    7    1         0.8436624550E-01      0.2066980845E+00
          0                 6           1             4    7     1       0.2129008846E-04       5    8    1         0.1243231207E-02      0.3048349048E-02

    ------------------------------------------------
       NWT REQUIRED            6 OUTER ITERATIONS 
       AND A TOTAL OF         11 INNER ITERATIONS.
    ------------------------------------------------

 NO OUTPUT CONTROL FOR STRESS PERIOD   17   TIME STEP   13
 
 SOLVING FOR HEAD 
                                                   Max.-Head-Change                         Max.-Flux-Residual
  Residual-Control   Outer-Iter.   Inner-Iter.     Column Row Layer    Maximum-Head-Change  Column Row Layer    Maximum-Flux-Residual          L2-NORM 
          0                 1           2             5    8     1       0.6412595214E-01       5    8    1         0.3511632540E+01      0.7614809795E+01
          0                 2           2             5    6     1      -0.1239572694E+00       5    8    1        -0.6830313366E+01      0.1653091103E+02
          0                 3           2             4    7     1       0.7930601737E-01       5    8    1         0.4391434415E+01      0.1074051095E+02
          0                 4           2             4    7     1      -0.1174075960E+00       5    8    1        -0.6658713494E+01      0.1630983248E+02
          0                 5           2             4    7     1       0.1447603864E-02       4    7    1         0.8436655723E-01      0.2066988092E+00
          0                 6           1             4    7     1       0.2129023408E-04       5    8    1         0.1243235988E-02      0.3048357812E-02

    ------------------------------------------------
       NWT REQUIRED            6 OUTER ITERATIONS 
       AND A TOTAL OF         11 INNER ITERATIONS.
    ------------------------------------------------

 NO OUTPUT CONTROL FOR STRESS PERIOD   17   TIME STEP   14
 
 SOLVING FOR HEAD 
                                                   Max.-Head-Change                         Max.-Flux-Residual
  Residual-Control   Outer-Iter.   Inner-Iter.     Column Row Layer    Maximum-Head-Change  Column Row Layer    Maximum-Flux-Residual          L2-NORM 
          0                 1           2             5    8     1       0.6577703112E-01       5    8    1         0.3600856644E+01      0.7847354611E+01
          0                 2           2             5    6     1      -0.1241206078E+00       5    8    1        -0.6839235565E+01      0.1655329246E+02
          0                 3           2             4    7     1       0.7931705347E-01       5    8    1         0.4392058987E+01      0.1074204945E+02
          0                 4           2             4    7     1      -0.1174084001E+00       5    8    1        -0.6658739210E+01      0.1630989565E+02
          0                 5           2             4    7     1       0.1447613777E-02       4    7    1         0.8436686765E-01      0.2066995294E+00
          0                 6           1             4    7     1       0.2129038015E-04       5    8    1         0.1243240579E-02      0.3048366867E-02

    ------------------------------------------------
       NWT REQUIRED            6 OUTER ITERATIONS 
       AND A TOTAL OF         11 INNER ITERATIONS.
    ------------------------------------------------

 NO OUTPUT CONTROL FOR STRESS PERIOD   17   TIME STEP   15
 
 SOLVING FOR HEAD 
                                                   Max.-Head-Change                         Max.-Flux-Residual
  Residual-Control   Outer-Iter.   Inner-Iter.     Column Row Layer    Maximum-Head-Change  Column Row Layer    Maximum-Flux-Residual          L2-NORM 
          0                 1           2             5    8     1       0.6736566952E-01       5    8    1         0.3686648248E+01      0.8072792790E+01
          0                 2           2             5    6     1      -0.1242780246E+00       5    8    1        -0.6847814515E+01      0.1657507422E+02
          0                 3           2             4    7     1       0.7932802662E-01       5    8    1         0.4392659532E+01      0.1074354936E+02
          0                 4           2             4    7     1      -0.1174092024E+00       5    8    1        -0.6658763933E+01      0.1630995716E+02
          0                 5           2             4    7     1       0.1447623667E-02       4    7    1         0.8436717651E-01      0.2067002426E+00
          0                 6           1             4    7     1       0.2129052577E-04       5    8    1         0.1243244998E-02      0.3048375927E-02

    ------------------------------------------------
       NWT REQUIRED            6 OUTER ITERATIONS 
       AND A TOTAL OF         11 INNER ITERATIONS.
    ------------------------------------------------

 NO OUTPUT CONTROL FOR STRESS PERIOD   17   TIME STEP   16
 
 SOLVING FOR HEAD 
                                                   Max.-Head-Change                         Max.-Flux-Residual
  Residual-Control   Outer-Iter.   Inner-Iter.     Column Row Layer    Maximum-Head-Change  Column Row Layer    Maximum-Flux-Residual          L2-NORM 
          0                 1           2             5    8     1       0.6889536984E-01       5    8    1         0.3769201995E+01      0.8291411532E+01
          0                 2           2             5    6     1      -0.1244298304E+00       5    8    1        -0.6856069681E+01      0.1659627779E+02
          0                 3           2             4    7     1       0.7933892944E-01       5    8    1         0.4393237412E+01      0.1074501024E+02
          0                 4           2             4    7     1      -0.1174100022E+00       5    8    1        -0.6658787720E+01      0.1631001707E+02
          0                 5           2             4    7     1       0.1447633527E-02       4    7    1         0.8436748355E-01      0.2067009296E+00
          0                 6           1             4    7     1       0.2129067027E-04       5    8    1         0.1243249238E-02      0.3048383982E-02

    ------------------------------------------------
       NWT REQUIRED            6 OUTER ITERATIONS 
       AND A TOTAL OF         11 INNER ITERATIONS.
    ------------------------------------------------

 NO OUTPUT CONTROL FOR STRESS PERIOD   17   TIME STEP   17
 
 SOLVING FOR HEAD 
                                                   Max.-Head-Change                         Max.-Flux-Residual
  Residual-Control   Outer-Iter.   Inner-Iter.     Column Row Layer    Maximum-Head-Change  Column Row Layer    Maximum-Flux-Residual          L2-NORM 
          0                 1           2             5    8     1       0.7036912394E-01       5    8    1         0.3848683878E+01      0.8503490720E+01
          0                 2           2             5    6     1      -0.1245763035E+00       5    8    1        -0.6864017662E+01      0.1661692471E+02
          0                 3           2             4    7     1       0.7934975264E-01       5    8    1         0.4393793788E+01      0.1074643357E+02
          0                 4           2             4    7     1      -0.1174107988E+00       5    8    1        -0.6658810618E+01      0.1631007544E+02
          0                 5           2             4    7     1       0.1447643346E-02       4    7    1         0.8436778849E-01      0.2067016021E+00
          0                 6           1             4    7     1       0.2129081455E-04       5    8    1         0.1243253325E-02      0.3048392903E-02

    ------------------------------------------------
       NWT REQUIRED            6 OUTER ITERATIONS 
       AND A TOTAL OF         11 INNER ITERATIONS.
    ------------------------------------------------

 NO OUTPUT CONTROL FOR STRESS PERIOD   17   TIME STEP   18
 
 SOLVING FOR HEAD 
                                                   Max.-Head-Change                         Max.-Flux-Residual
  Residual-Control   Outer-Iter.   Inner-Iter.     Column Row Layer    Maximum-Head-Change  Column Row Layer    Maximum-Flux-Residual          L2-NORM 
          0                 1           2             5    8     1       0.7179016065E-01       5    8    1         0.3925272454E+01      0.8709318404E+01
          0                 2           2             5    6     1      -0.1247177196E+00       5    8    1        -0.6871676314E+01      0.1663703759E+02
          0                 3           2             4    7     1       0.7936049054E-01       5    8    1         0.4394329912E+01      0.1074782086E+02
          0                 4           2             4    7     1      -0.1174115917E+00       5    8    1        -0.6658832680E+01      0.1631013232E+02
          0                 5           2             4    7     1       0.1447653120E-02       4    7    1         0.8436809121E-01      0.2067022652E+00
          0                 6           1             4    7     1       0.2129095871E-04       5    8    1         0.1243257253E-02      0.3048400933E-02

    ------------------------------------------------
       NWT REQUIRED            6 OUTER ITERATIONS 
       AND A TOTAL OF         11 INNER ITERATIONS.
    ------------------------------------------------

 NO OUTPUT CONTROL FOR STRESS PERIOD   17   TIME STEP   19
 
 SOLVING FOR HEAD 
                                                   Max.-Head-Change                         Max.-Flux-Residual
  Residual-Control   Outer-Iter.   Inner-Iter.     Column Row Layer    Maximum-Head-Change  Column Row Layer    Maximum-Flux-Residual          L2-NORM 
          0                 1           2             5    8     1       0.7316106686E-01       5    8    1         0.3999111724E+01      0.8909151249E+01
          0                 2           2             5    6     1      -0.1248543092E+00       5    8    1        -0.6879060037E+01      0.1665663402E+02
          0                 3           2             4    7     1       0.7937113716E-01       5    8    1         0.4394846790E+01      0.1074917322E+02
          0                 4           2             4    7     1      -0.1174123804E+00       5    8    1        -0.6658853947E+01      0.1631018777E+02
          0                 5           2             4    7     1       0.1447662843E-02       4    7    1         0.8436839147E-01      0.2067029100E+00
          0                 6           1             4    7     1       0.2129110153E-04       5    8    1         0.1243261044E-02      0.3048408870E-02

    ------------------------------------------------
       NWT REQUIRED            6 OUTER ITERATIONS 
       AND A TOTAL OF         11 INNER ITERATIONS.
    ------------------------------------------------

 NO OUTPUT CONTROL FOR STRESS PERIOD   17   TIME STEP   20
 
 SOLVING FOR HEAD 
                                                   Max.-Head-Change                         Max.-Flux-Residual
  Residual-Control   Outer-Iter.   Inner-Iter.     Column Row Layer    Maximum-Head-Change  Column Row Layer    Maximum-Flux-Residual          L2-NORM 
          0                 1           2             5    8     1       0.7448440939E-01       5    8    1         0.4070343635E+01      0.9103235957E+01
          0                 2           2             5    6     1      -0.1249863320E+00       5    8    1        -0.6886183027E+01      0.1667573398E+02
          0                 3           2             4    7     1       0.7938168628E-01       5    8    1         0.4395345417E+01      0.1075049200E+02
          0                 4           2             4    7     1      -0.1174131643E+00       5    8    1        -0.6658874460E+01      0.1631024184E+02
          0                 5           2             4    7     1       0.1447672507E-02       4    7    1         0.8436868909E-01      0.2067035422E+00
          0                 6           1             4    7     1       0.2129124357E-04       5    8    1         0.1243264688E-02      0.3048416919E-02

    ------------------------------------------------
       NWT REQUIRED            6 OUTER ITERATIONS 
       AND A TOTAL OF         11 INNER ITERATIONS.
    ------------------------------------------------

 NO OUTPUT CONTROL FOR STRESS PERIOD   17   TIME STEP   21
 
 SOLVING FOR HEAD 
                                                   Max.-Head-Change                         Max.-Flux-Residual
  Residual-Control   Outer-Iter.   Inner-Iter.     Column Row Layer    Maximum-Head-Change  Column Row Layer    Maximum-Flux-Residual          L2-NORM 
          0                 1           2             5    8     1       0.7576272864E-01       5    8    1         0.4139109088E+01      0.9291808470E+01
          0                 2           2             5    6     1      -0.1251139750E+00       5    8    1        -0.6893059374E+01      0.1669435419E+02
          0                 3           2             4    7     1       0.7939213324E-01       5    8    1         0.4395826779E+01      0.1075177835E+02
          0                 4           2             4    7     1      -0.1174139432E+00       5    8    1        -0.6658894260E+01      0.1631029458E+02
          0                 5           2             4    7     1       0.1447682107E-02       4    7    1         0.8436898392E-01      0.2067041581E+00
          0                 6           1             4    7     1       0.2129138482E-04       5    8    1         0.1243268189E-02      0.3048424695E-02

    ------------------------------------------------
       NWT REQUIRED            6 OUTER ITERATIONS 
       AND A TOTAL OF         11 INNER ITERATIONS.
    ------------------------------------------------

 NO OUTPUT CONTROL FOR STRESS PERIOD   17   TIME STEP   22
 
 SOLVING FOR HEAD 
                                                   Max.-Head-Change                         Max.-Flux-Residual
  Residual-Control   Outer-Iter.   Inner-Iter.     Column Row Layer    Maximum-Head-Change  Column Row Layer    Maximum-Flux-Residual          L2-NORM 
          0                 1           2             5    8     1       0.7699812233E-01       5    8    1         0.4205524205E+01      0.9475102034E+01
          0                 2           2             5    6     1      -0.1252374715E+00       5    8    1        -0.6899700690E+01      0.1671251254E+02
          0                 3           2             4    7     1       0.7940247393E-01       5    8    1         0.4396291688E+01      0.1075303340E+02
          0                 4           2             4    7     1      -0.1174147166E+00       5    8    1        -0.6658913380E+01      0.1631034602E+02
          0                 5           2             4    7     1       0.1447691641E-02       4    7    1         0.8436927587E-01      0.2067047620E+00
          0                 6           1             4    7     1       0.2129152540E-04       5    8    1         0.1243271589E-02      0.3048432286E-02

    ------------------------------------------------
       NWT REQUIRED            6 OUTER ITERATIONS 
       AND A TOTAL OF         11 INNER ITERATIONS.
    ------------------------------------------------

 NO OUTPUT CONTROL FOR STRESS PERIOD   17   TIME STEP   23
 
 SOLVING FOR HEAD 
                                                   Max.-Head-Change                         Max.-Flux-Residual
  Residual-Control   Outer-Iter.   Inner-Iter.     Column Row Layer    Maximum-Head-Change  Column Row Layer    Maximum-Flux-Residual          L2-NORM 
          0                 1           2             5    8     1       0.7819312350E-01       5    8    1         0.4269728961E+01      0.9653341787E+01
          0                 2           2             5    6     1      -0.1253570124E+00       5    8    1        -0.6906120972E+01      0.1673022615E+02
          0                 3           2             4    7     1       0.7941270478E-01       5    8    1         0.4396741124E+01      0.1075425829E+02
          0                 4           2             4    7     1      -0.1174154842E+00       5    8    1        -0.6658931861E+01      0.1631039623E+02
          0                 5           2             4    7     1       0.1447701103E-02       4    7    1         0.8436956478E-01      0.2067053520E+00
          0                 6           1             4    7     1       0.2129166419E-04       5    8    1         0.1243274863E-02      0.3048439844E-02

    ------------------------------------------------
       NWT REQUIRED            6 OUTER ITERATIONS 
       AND A TOTAL OF         11 INNER ITERATIONS.
    ------------------------------------------------

 NO OUTPUT CONTROL FOR STRESS PERIOD   17   TIME STEP   24
 
 SOLVING FOR HEAD 
                                                   Max.-Head-Change                         Max.-Flux-Residual
  Residual-Control   Outer-Iter.   Inner-Iter.     Column Row Layer    Maximum-Head-Change  Column Row Layer    Maximum-Flux-Residual          L2-NORM 
          0                 1           2             5    8     1       0.7934939966E-01       5    8    1         0.4331815701E+01      0.9826717223E+01
          0                 2           2             5    6     1      -0.1254727775E+00       5    8    1        -0.6912329456E+01      0.1674750918E+02
          0                 3           2             4    7     1       0.7942282177E-01       5    8    1         0.4397175735E+01      0.1075545397E+02
          0                 4           2             4    7     1      -0.1174162457E+00       5    8    1        -0.6658949730E+01      0.1631044524E+02
          0                 5           2             4    7     1       0.1447710490E-02       4    7    1         0.8436985058E-01      0.2067059290E+00
          0                 6           1             4    7     1       0.2129180208E-04       5    8    1         0.1243278007E-02      0.3048447091E-02

    ------------------------------------------------
       NWT REQUIRED            6 OUTER ITERATIONS 
       AND A TOTAL OF         11 INNER ITERATIONS.
    ------------------------------------------------

 NO OUTPUT CONTROL FOR STRESS PERIOD   17   TIME STEP   25
 
 SOLVING FOR HEAD 
                                                   Max.-Head-Change                         Max.-Flux-Residual
  Residual-Control   Outer-Iter.   Inner-Iter.     Column Row Layer    Maximum-Head-Change  Column Row Layer    Maximum-Flux-Residual          L2-NORM 
          0                 1           2             5    8     1       0.8046893746E-01       5    8    1         0.4391894295E+01      0.9995439039E+01
          0                 2           2             5    6     1      -0.1255849508E+00       5    8    1        -0.6918337129E+01      0.1676437776E+02
          0                 3           2             4    7     1       0.7943282319E-01       5    8    1         0.4397596288E+01      0.1075662152E+02
          0                 4           2             4    7     1      -0.1174170009E+00       5    8    1        -0.6658967019E+01      0.1631049309E+02
          0                 5           2             4    7     1       0.1447719798E-02       4    7    1         0.8437013314E-01      0.2067064932E+00
          0                 6           1             4    7     1       0.2129193896E-04       5    8    1         0.1243281072E-02      0.3048454225E-02

    ------------------------------------------------
       NWT REQUIRED            6 OUTER ITERATIONS 
       AND A TOTAL OF         11 INNER ITERATIONS.
    ------------------------------------------------

 NO OUTPUT CONTROL FOR STRESS PERIOD   17   TIME STEP   26
 
 SOLVING FOR HEAD 
                                                   Max.-Head-Change                         Max.-Flux-Residual
  Residual-Control   Outer-Iter.   Inner-Iter.     Column Row Layer    Maximum-Head-Change  Column Row Layer    Maximum-Flux-Residual          L2-NORM 
          0                 1           2             5    8     1       0.8155359906E-01       5    8    1         0.4450067753E+01      0.1015968120E+02
          0                 2           2             5    6     1      -0.1256936909E+00       5    8    1        -0.6924154291E+01      0.1678084537E+02
          0                 3           2             4    7     1       0.7944270496E-01       5    8    1         0.4398003505E+01      0.1075776181E+02
          0                 4           2             4    7     1      -0.1174177494E+00       5    8    1        -0.6658983757E+01      0.1631053982E+02
          0                 5           2             4    7     1       0.1447729025E-02       4    7    1         0.8437041241E-01      0.2067070452E+00
          0                 6           1             4    7     1       0.2129207506E-04       5    8    1         0.1243284022E-02      0.3048505300E-02

    ------------------------------------------------
       NWT REQUIRED            6 OUTER ITERATIONS 
       AND A TOTAL OF         11 INNER ITERATIONS.
    ------------------------------------------------

 NO OUTPUT CONTROL FOR STRESS PERIOD   17   TIME STEP   27
 
 SOLVING FOR HEAD 
                                                   Max.-Head-Change                         Max.-Flux-Residual
  Residual-Control   Outer-Iter.   Inner-Iter.     Column Row Layer    Maximum-Head-Change  Column Row Layer    Maximum-Flux-Residual          L2-NORM 
          0                 1           2             5    8     1       0.8260499459E-01       5    8    1         0.4506424839E+01      0.1031963246E+02
          0                 2           2             5    6     1      -0.1257991620E+00       5    8    1        -0.6929789819E+01      0.1679692599E+02
          0                 3           2             4    7     1       0.7945246619E-01       5    8    1         0.4398398008E+01      0.1075887579E+02
          0                 4           2             4    7     1      -0.1174184911E+00       5    8    1        -0.6658999969E+01      0.1631058546E+02
          0                 5           2             4    7     1       0.1447738167E-02       4    7    1         0.8437068833E-01      0.2067075848E+00
          0                 6           1             4    7     1       0.2129220948E-04       5    8    1         0.1243286875E-02      0.3048467910E-02

    ------------------------------------------------
       NWT REQUIRED            6 OUTER ITERATIONS 
       AND A TOTAL OF         11 INNER ITERATIONS.
    ------------------------------------------------

 NO OUTPUT CONTROL FOR STRESS PERIOD   17   TIME STEP   28
 
 SOLVING FOR HEAD 
                                                   Max.-Head-Change                         Max.-Flux-Residual
  Residual-Control   Outer-Iter.   Inner-Iter.     Column Row Layer    Maximum-Head-Change  Column Row Layer    Maximum-Flux-Residual          L2-NORM 
          0                 1           2             5    8     1       0.8362477448E-01       5    8    1         0.4561056838E+01      0.1047545234E+02
          0                 2           2             5    6     1      -0.1259015047E+00       5    8    1        -0.6935252842E+01      0.1681262713E+02
          0                 3           2             4    7     1       0.7946210465E-01       5    8    1         0.4398780435E+01      0.1075996423E+02
          0                 4           2             4    7     1      -0.1174192259E+00       5    8    1        -0.6659015683E+01      0.1631063005E+02
          0                 5           2             4    7     1       0.1447747225E-02       4    7    1         0.8437096080E-01      0.2067081070E+00
          0                 6           1             4    7     1       0.2129234245E-04       5    8    1         0.1243289646E-02      0.3048474614E-02

    ------------------------------------------------
       NWT REQUIRED            6 OUTER ITERATIONS 
       AND A TOTAL OF         11 INNER ITERATIONS.
    ------------------------------------------------

 NO OUTPUT CONTROL FOR STRESS PERIOD   17   TIME STEP   29
 
 SOLVING FOR HEAD 
                                                   Max.-Head-Change                         Max.-Flux-Residual
  Residual-Control   Outer-Iter.   Inner-Iter.     Column Row Layer    Maximum-Head-Change  Column Row Layer    Maximum-Flux-Residual          L2-NORM 
          0                 1           2             5    8     1       0.8461270096E-01       5    8    1         0.4614041350E+01      0.1062114091E+02
          0                 2           2             5    7     1      -0.1260057818E+00       5    8    1        -0.6940551085E+01      0.1681940741E+02
          0                 3           2             4    7     1       0.6950391773E-01       5    8    1         0.3849246269E+01      0.9414014199E+01
          0                 4           2             4    7     1      -0.1009676835E+00       5    8    1        -0.5726087088E+01      0.1402542896E+02
          0                 5           2             4    7     1       0.1244914143E-02       4    7    1         0.7255015702E-01      0.1777482386E+00
          0                 6           1             4    7     1       0.1830923276E-04       5    8    1         0.1069109349E-02      0.2621374103E-02

    ------------------------------------------------
       NWT REQUIRED            6 OUTER ITERATIONS 
       AND A TOTAL OF         11 INNER ITERATIONS.
    ------------------------------------------------

 NO OUTPUT CONTROL FOR STRESS PERIOD   17   TIME STEP   30



 STREAM LISTING     PERIOD     17   STEP       30

 LAYER ROW COL. STREAM  RCH.  FLOW INTO     FLOW TO   FLOW OUT OF   OVRLND.     DIRECT     STREAM       STREAM     STREAM     STREAM   STREAMBED  STREAMBED
                SEG.NO.  NO.  STRM. RCH.    AQUIFER    STRM. RCH.    RUNOFF     PRECIP       ET          HEAD       DEPTH      WIDTH   CONDCTNC.   GRADIENT

   1    1    1     1     1    2.4716E+01  2.4383E-01   2.4472E+01  0.000E+00  0.000E+00  0.000E+00  1.09422E+03  1.174E+00  1.298E+01  5.842E-02  1.391E+00
   1    2    2     1     2    2.4472E+01  3.7705E-01   2.4095E+01  0.000E+00  0.000E+00  0.000E+00  1.08923E+03  1.169E+00  1.292E+01  9.043E-02  1.390E+00
   1    3    3     1     3    2.4095E+01  3.2100E-01   2.3774E+01  0.000E+00  0.000E+00  0.000E+00  1.08358E+03  1.164E+00  1.285E+01  7.709E-02  1.388E+00
   1    3    4     1     4    2.3774E+01  2.9513E-01   2.3479E+01  0.000E+00  0.000E+00  0.000E+00  1.07857E+03  1.159E+00  1.278E+01  7.096E-02  1.386E+00
   1    4    5     2     1    2.1479E+01  3.1960E-01   2.1159E+01  0.000E+00  0.000E+00  0.000E+00  1.07303E+03  1.097E+00  1.200E+01  7.800E-02  1.366E+00
   1    5    6     2     2    2.1159E+01  2.4532E-01   2.0914E+01  0.000E+00  0.000E+00  0.000E+00  1.06760E+03  1.089E+00  1.200E+01  6.000E-02  1.363E+00
   1    6    6     2     3    2.0914E+01  2.4487E-01   2.0669E+01  0.000E+00  0.000E+00  0.000E+00  1.06287E+03  1.081E+00  1.200E+01  6.000E-02  1.360E+00
   1    7    6     2     4    2.0669E+01  2.4441E-01   2.0424E+01  0.000E+00  0.000E+00  0.000E+00  1.05815E+03  1.073E+00  1.200E+01  6.000E-02  1.358E+00
   1    8    6     2     5    2.0424E+01  2.4395E-01   2.0180E+01  0.000E+00  0.000E+00  0.000E+00  1.05342E+03  1.066E+00  1.200E+01  6.000E-02  1.355E+00
   1    3    5     3     1    2.0000E+00  2.8252E-01   1.7175E+00  0.000E+00  0.000E+00  0.000E+00  1.07555E+03  1.909E+00  9.636E+00  7.227E-02  1.955E+00
   1    3    6     3     2    1.7175E+00  2.4905E-01   1.4684E+00  0.000E+00  0.000E+00  0.000E+00  1.07264E+03  1.727E+00  8.909E+00  6.682E-02  1.864E+00
   1    3    7     3     3    1.4684E+00  1.9718E-01   1.2712E+00  0.000E+00  0.000E+00  0.000E+00  1.06987E+03  1.555E+00  8.218E+00  5.547E-02  1.777E+00
   1    4    8     3     4    1.2712E+00  2.2567E-01   1.0456E+00  0.000E+00  0.000E+00  0.000E+00  1.06682E+03  1.364E+00  7.455E+00  6.709E-02  1.682E+00
   1    5    8     3     5    1.0456E+00  1.5790E-01   8.8768E-01  0.000E+00  0.000E+00  0.000E+00  1.06362E+03  1.164E+00  6.655E+00  4.991E-02  1.582E+00
   1    6    8     3     6    8.8768E-01  5.5980E-02   8.3170E-01  0.000E+00  0.000E+00  0.000E+00  1.06158E+03  1.036E+00  6.145E+00  1.844E-02  1.518E+00
   1    5   10     4     1    1.0000E+01  9.0919E-02   9.9091E+00  0.000E+00  0.000E+00  0.000E+00  1.07836E+03  6.368E-01  1.000E+01  2.500E-02  1.212E+00
   1    5    9     4     2    9.9091E+00  1.8158E-01   9.7275E+00  0.000E+00  0.000E+00  0.000E+00  1.07154E+03  6.315E-01  1.000E+01  5.000E-02  1.211E+00
   1    6    8     4     3    9.7275E+00  1.2689E-01   9.6006E+00  0.000E+00  0.000E+00  0.000E+00  1.06381E+03  6.256E-01  1.000E+01  3.500E-02  1.209E+00
   1    6    8     5     1    1.0432E+01  2.2686E-01   1.0205E+01  0.000E+00  0.000E+00  0.000E+00  1.05868E+03  6.790E-01  1.542E+01  6.166E-02  1.226E+00
   1    7    7     5     2    1.0205E+01  2.7894E-01   9.9265E+00  0.000E+00  0.000E+00  0.000E+00  1.05417E+03  6.732E-01  1.519E+01  7.594E-02  1.224E+00
   1    8    7     5     3    9.9265E+00  1.9221E-01   9.7343E+00  0.000E+00  0.000E+00  0.000E+00  1.04992E+03  6.676E-01  1.497E+01  5.241E-02  1.223E+00
   1    8    6     5     4    9.7343E+00  1.3577E-01   9.5985E+00  0.000E+00  0.000E+00  0.000E+00  1.04691E+03  6.637E-01  1.482E+01  3.706E-02  1.221E+00
   1    9    6     6     1    9.5985E+00  2.2097E-01   9.3776E+00  0.000E+00  0.000E+00  0.000E+00  1.04341E+03  6.828E-01  1.200E+01  6.000E-02  1.228E+00
   1   10    7     6     2    9.3776E+00  2.2039E-01   9.1572E+00  0.000E+00  0.000E+00  0.000E+00  1.03885E+03  6.732E-01  1.200E+01  6.000E-02  1.224E+00
   1   11    7     6     3    9.1572E+00  2.1981E-01   8.9374E+00  0.000E+00  0.000E+00  0.000E+00  1.03430E+03  6.636E-01  1.200E+01  6.000E-02  1.221E+00
   1   12    7     6     4    8.9374E+00  2.1923E-01   8.7181E+00  0.000E+00  0.000E+00  0.000E+00  1.02974E+03  6.539E-01  1.200E+01  6.000E-02  1.218E+00
   1   13    7     6     5    8.7181E+00 -1.1946E-02   8.7301E+00  0.000E+00  0.000E+00  0.000E+00  1.02656E+03  6.492E-01  1.200E+01  2.400E-01 -1.659E-02
   1   14    9     7     1    1.5000E+02  1.3750E+00   1.4863E+02  0.000E+00  0.000E+00  0.000E+00  1.03987E+03  2.288E+00  5.529E+01  5.593E-01  8.195E-01
   1   13    8     7     2    1.4863E+02  1.9719E+00   1.4665E+02  0.000E+00  0.000E+00  0.000E+00  1.03478E+03  2.279E+00  5.525E+01  6.147E-01  1.069E+00
   1   13    7     7     3    1.4665E+02  1.7198E+00   1.4493E+02  0.000E+00  0.000E+00  0.000E+00  1.02969E+03  2.269E+00  5.521E+01  5.584E-01  1.027E+00
   1   13    6     8     1    1.5366E+02  1.0776E+00   1.5259E+02  0.000E+00  0.000E+00  0.000E+00  1.02471E+03  2.839E+00  4.116E+01  4.194E-01  8.564E-01
   1   13    5     8     2    1.5259E+02  3.3767E-01   1.5225E+02  0.000E+00  0.000E+00  0.000E+00  1.01846E+03  2.834E+00  4.109E+01  4.187E-01  2.688E-01
   1   13    4     8     3    1.5225E+02 -1.8688E+00   1.5412E+02  0.000E+00  0.000E+00  0.000E+00  1.01221E+03  2.839E+00  4.117E+01  4.195E+00 -1.485E-01
   1   13    3     8     4    1.5412E+02 -3.3948E+00   1.5751E+02  0.000E+00  0.000E+00  0.000E+00  1.00598E+03  2.857E+00  4.143E+01  4.222E+00 -2.680E-01
   1   13    2     8     5    1.5751E+02 -2.5802E+00   1.6009E+02  0.000E+00  0.000E+00  0.000E+00  9.99753E+02  2.878E+00  4.173E+01  4.252E+00 -2.023E-01
   1   13    1     8     6    1.6009E+02 -2.0403E+00   1.6213E+02  0.000E+00  0.000E+00  0.000E+00  9.94768E+02  2.893E+00  4.195E+01  2.565E+00 -2.651E-01
   1    8    6     9     1    2.0180E+01  0.0000E+00   2.0180E+01  0.000E+00  0.000E+00  0.000E+00  1.08220E+03  3.453E+00  4.000E+00  0.000E+00  2.151E+00
   1    8    5     9     2    2.0180E+01  0.0000E+00   2.0180E+01  0.000E+00  0.000E+00  0.000E+00  1.08170E+03  3.453E+00  4.000E+00  0.000E+00  2.151E+00





UNSATURATED ZONE PACKAGE VOLUMETRIC BUDGET FOR  TIME STEP    30 STRESS PERIOD   17
  ------------------------------------------------------------------------------



     CUMULATIVE VOLUMES      L**3       RATES FOR THIS TIME STEP      L**3/T
     ------------------                 ------------------------

           IN:                                      IN:
           ---                                      ---
        INFILTRATION =  2184712345.8472          INFILTRATION =          73.1350

          OUT:                                     OUT:
          ----                                     ----
              UZF ET =   450917256.3749                UZF ET =           4.5675
        UZF RECHARGE =  1100026209.4082          UZF RECHARGE =       0.0000E+00

            IN - OUT =   633768880.0641              IN - OUT =          68.5675

          STORAGE:                                 STORAGE:
          --------                                 --------
      STORAGE CHANGE =   633768314.2192        STORAGE CHANGE =          68.5675

 PERCENT DISCREPANCY IS DIFFERENCE BETWEEN IN-OUT MINUS CHANGE IN STORAGE
 DIVIDED BY THE AVERAGE OF IN AND OUT TIMES 100

 PERCENT DISCREPANCY =           0.00     PERCENT DISCREPANCY =           0.00






1
  VOLUMETRIC BUDGET FOR AGRICULTURAL FIELDS AT  END OF TIME STEP   30, STRESS PERIOD  17
  ------------------------------------------------------------------------------

     CUMULATIVE VOLUMES      L**3       RATES FOR THIS TIME STEP      L**3/T
     ------------------                 ------------------------

           IN:                                      IN:
           ---                                      ---
               AG WELLS  =  1810059648.0000                 AG WELLS  =          52.1066
      DIVERSION SEGMENTS =   338910336.0000        DIVERSION SEGMENTS =          20.1805
           GW IRRIGATION =           0.0000             GW IRRIGATION =           0.0000
           SW IRRIGATION =           0.0000             SW IRRIGATION =           0.0000
        SYSTEM LOSSES GW =           0.0000          SYSTEM LOSSES GW =           0.0000
        SYSTEM LOSSES SW =           0.0000          SYSTEM LOSSES SW =           0.0000

                TOTAL IN =  2148969984.0000                  TOTAL IN =          72.2871

          OUT:                                     OUT:
          ----                                     ----
               AG WELLS  =           0.0000                 AG WELLS  =           0.0000
      DIVERSION SEGMENTS =           0.0000        DIVERSION SEGMENTS =           0.0000
           GW IRRIGATION =  1810059648.0000             GW IRRIGATION =          52.1066
           SW IRRIGATION =   338916480.0000             SW IRRIGATION =          20.1809
        SYSTEM LOSSES GW =           0.0000          SYSTEM LOSSES GW =           0.0000
        SYSTEM LOSSES SW =           0.0000          SYSTEM LOSSES SW =           0.0000

               TOTAL OUT =  2148976128.0000                 TOTAL OUT =          72.2875

                IN - OUT =       -6144.0000                  IN - OUT =      -4.0436E-04

     PERCENT DISCREPANCY =          -0.00         PERCENT DISCREPANCY =          -0.00



1
  VOLUMETRIC BUDGET FOR ENTIRE MODEL AT END OF TIME STEP   30, STRESS PERIOD  17
  ------------------------------------------------------------------------------

     CUMULATIVE VOLUMES      L**3       RATES FOR THIS TIME STEP      L**3/T
     ------------------                 ------------------------

           IN:                                      IN:
           ---                                      ---
             STORAGE     =  2104829184.0000               STORAGE     =          50.1264
       CONSTANT HEAD     =           0.0000         CONSTANT HEAD     =           0.0000
     HEAD DEP BOUNDS     =    12144977.0000       HEAD DEP BOUNDS     =           0.2884
      STREAM LEAKAGE     =   498741312.0000        STREAM LEAKAGE     =          12.2991
        UZF RECHARGE     =  1100026368.0000          UZF RECHARGE     =           0.0000
               GW ET     =           0.0000                 GW ET     =           0.0000
     SURFACE LEAKAGE     =           0.0000       SURFACE LEAKAGE     =           0.0000
           AG WELLS      =           0.0000             AG WELLS      =           0.0000

                TOTAL IN =  3715741952.0000                  TOTAL IN =          62.7139

          OUT:                                     OUT:
          ----                                     ----
             STORAGE     =  1468211456.0000               STORAGE     =           0.4238
       CONSTANT HEAD     =           0.0000         CONSTANT HEAD     =           0.0000
     HEAD DEP BOUNDS     =    12132512.0000       HEAD DEP BOUNDS     =           0.2874
      STREAM LEAKAGE     =   425276000.0000        STREAM LEAKAGE     =           9.8960
        UZF RECHARGE     =           0.0000          UZF RECHARGE     =           0.0000
               GW ET     =           0.0000                 GW ET     =           0.0000
     SURFACE LEAKAGE     =           0.0000       SURFACE LEAKAGE     =           0.0000
           AG WELLS      =  1810059648.0000             AG WELLS      =          52.1066

               TOTAL OUT =  3715679744.0000                 TOTAL OUT =          62.7138

                IN - OUT =       62208.0000                  IN - OUT =       9.1553E-05

     PERCENT DISCREPANCY =           0.00         PERCENT DISCREPANCY =           0.00






         TIME SUMMARY AT END OF TIME STEP   30 IN STRESS PERIOD   17
                    SECONDS     MINUTES      HOURS       DAYS        YEARS
                    -----------------------------------------------------------
   TIME STEP LENGTH  87667.      1461.1      24.352      1.0147     2.77799E-03
 STRESS PERIOD TIME 2.63000E+06  43833.      730.56      30.440     8.33397E-02
         TOTAL TIME 4.21664E+07 7.02774E+05  11713.      488.04      1.3362    
1
1
                            STRESS PERIOD NO.   18, LENGTH =   2630000.    
                            -----------------------------------------------

                              NUMBER OF TIME STEPS =    30

                               MULTIPLIER FOR DELT =     1.000

                            INITIAL TIME STEP SIZE =   87666.66    

 REUSING NON-PARAMETER GHB CELLS FROM LAST STRESS PERIOD

      2 GHB CELLS

 REUSING STREAM SEGMENT DATA FROM LAST STRESS PERIOD



            AREAL INFILTRATION RATE
 READING ON UNIT   19 WITH FORMAT: (FREE)              

            1           2           3           4           5           6           7           8           9          10
 ........................................................................................................................
   1   1.0000E-10  2.0000E-10   0.000       0.000       0.000       0.000       0.000       0.000       0.000       0.000    
   2   2.0000E-10  1.0000E-10  2.0000E-10   0.000       0.000      8.0000E-10  8.0000E-10  5.0000E-10   0.000       0.000    
   3    0.000      5.0000E-10  1.0000E-10  1.0000E-10  8.0000E-10  8.0000E-10  5.0000E-10  5.0000E-10   0.000       0.000    
   4   8.0000E-10  5.0000E-10  1.0000E-10  1.0000E-10  1.0000E-10  1.0000E-10  1.0000E-10  1.0000E-10  2.0000E-10   0.000    
   5   8.0000E-10  5.0000E-10  1.0000E-10  1.0000E-10  1.0000E-10  1.0000E-10  1.0000E-10  1.0000E-10  1.0000E-10  1.0000E-10
   6   8.0000E-10  5.0000E-10  5.0000E-10  2.0000E-10  2.0000E-10  1.0000E-10  1.0000E-10  1.0000E-10  1.0000E-10  5.0000E-10
   7   8.0000E-10  5.0000E-10  5.0000E-10  2.0000E-10  2.0000E-10  1.0000E-10  1.0000E-10  2.0000E-10  2.0000E-10   0.000    
   8    0.000      5.0000E-10  5.0000E-10  2.0000E-10  2.0000E-10  1.0000E-10  1.0000E-10  2.0000E-10  5.0000E-10   0.000    
   9    0.000      5.0000E-10  5.0000E-10  2.0000E-10  2.0000E-10  1.0000E-10  1.0000E-10  2.0000E-10  5.0000E-10   0.000    
  10    0.000      5.0000E-10  5.0000E-10  2.0000E-10  2.0000E-10  1.0000E-10  1.0000E-10  2.0000E-10  5.0000E-10  8.0000E-10
  11    0.000      1.0000E-10  1.0000E-10  1.0000E-10  1.0000E-10  1.0000E-10  1.0000E-10  2.0000E-10  5.0000E-10   0.000    
  12   1.0000E-10  1.0000E-10  1.0000E-10  1.0000E-10  1.0000E-10  1.0000E-10  1.0000E-10  1.0000E-10  2.0000E-10   0.000    
  13   1.0000E-10  1.0000E-10  2.0000E-10  2.0000E-10  2.0000E-10  2.0000E-10  2.0000E-10  1.0000E-10  1.0000E-10   0.000    
  14    0.000      2.0000E-10  5.0000E-10  5.0000E-10  5.0000E-10  5.0000E-10  5.0000E-10  2.0000E-10  1.0000E-10   0.000    
  15    0.000       0.000      8.0000E-10  8.0000E-10  8.0000E-10  8.0000E-10   0.000       0.000       0.000       0.000    

                  ET RATE =  5.000000E-08

 USING ET EXTINCTION DEPTH FROM PREVIOUS STRESS PERIOD. CURRENT PERIOD IS:      18

 USING EXTINCTION WATER CONTENT FROM PREVIOUS STRESS PERIOD. CURRENT PERIOD IS:      18

 USING AIR ENTRY PRESSURE FROM PREVIOUS STRESS PERIOD. CURRENT PERIOD IS:      18

 USING ROOT PRESSURE HEAD FROM PREVIOUS STRESS PERIOD. CURRENT PERIOD IS:      18

 USING ROOT ACTIVITY FROM PREVIOUS STRESS PERIOD. CURRENT PERIOD IS:      18

 PROCESSING AG STRESS PERIOD DATA

 READING AG STRESS PERIOD DATA

 READING IRRIGATION SEGMENT

 READING IRRIGATION WELL

 READING SUPPLEMENTAL WELL

 END PROCESSING AG STRESS PERIOD DATA OPTIONS
 
 SOLVING FOR HEAD 
                                                   Max.-Head-Change                         Max.-Flux-Residual
  Residual-Control   Outer-Iter.   Inner-Iter.     Column Row Layer    Maximum-Head-Change  Column Row Layer    Maximum-Flux-Residual          L2-NORM 
          0                 1           2             5    8     1       0.8537739965E-01       5    8    1         0.4654672927E+01      0.1073269290E+02
          0                 2           2             5    8     1      -0.8304800948E-02       5    8    1        -0.4654609346E+00      0.1076566759E+01
          0                 3           2             5    8     1       0.5655270552E-03       5    8    1         0.3258233964E-01      0.7535691292E-01
          0                 4           1             5    8     1      -0.2250284675E-04       5    8    1        -0.1332619263E-02      0.3081910405E-02

    ------------------------------------------------
       NWT REQUIRED            4 OUTER ITERATIONS 
       AND A TOTAL OF          7 INNER ITERATIONS.
    ------------------------------------------------

 NO OUTPUT CONTROL FOR STRESS PERIOD   18   TIME STEP    1
 
 SOLVING FOR HEAD 
                                                   Max.-Head-Change                         Max.-Flux-Residual
  Residual-Control   Outer-Iter.   Inner-Iter.     Column Row Layer    Maximum-Head-Change  Column Row Layer    Maximum-Flux-Residual          L2-NORM 
          0                 1           2             5    8     1       0.8145473294E-01       5    8    1         0.4436672282E+01      0.1034910798E+02
          0                 2           2             5    8     1      -0.4551372582E-01       5    8    1        -0.2513246309E+01      0.6020061321E+01
          0                 3           2             4    7     1       0.4046888288E-01       5    8    1         0.2245511816E+01      0.5487760595E+01
          0                 4           2             4    7     1      -0.6203652621E-01       5    8    1        -0.3518367128E+01      0.8621964045E+01
          0                 5           2             4    7     1       0.1995179500E-01       4    7    1         0.1162827318E+01      0.2848312334E+01
          0                 6           2             4    7     1      -0.3062530033E-01       4    7    1        -0.1834349177E+01      0.4493201443E+01
          0                 7           2             4    7     1      -0.1263798221E-02       5    8    1        -0.7571871775E-01      0.1854575367E+00
          0                 8           1             4    7     1      -0.5213961979E-04       5    8    1        -0.3124179406E-02      0.7652012658E-02

    ------------------------------------------------
       NWT REQUIRED            8 OUTER ITERATIONS 
       AND A TOTAL OF         15 INNER ITERATIONS.
    ------------------------------------------------

 NO OUTPUT CONTROL FOR STRESS PERIOD   18   TIME STEP    2
 
 SOLVING FOR HEAD 
                                                   Max.-Head-Change                         Max.-Flux-Residual
  Residual-Control   Outer-Iter.   Inner-Iter.     Column Row Layer    Maximum-Head-Change  Column Row Layer    Maximum-Flux-Residual          L2-NORM 
          0                 1           2             5    8     1       0.8002119246E-01       5    8    1         0.4356261543E+01      0.1022507740E+02
          0                 2           2             5    7     1      -0.1038175595E+00       5    8    1        -0.5713617126E+01      0.1385923699E+02
          0                 3           2             4    7     1       0.6481491973E-01       5    8    1         0.3587786043E+01      0.8776567940E+01
          0                 4           2             4    7     1      -0.9565537448E-01       5    8    1        -0.5424699558E+01      0.1328730382E+02
          0                 5           2             4    7     1       0.1179417330E-02       4    7    1         0.6873277517E-01      0.1683941844E+00
          0                 6           1             4    7     1       0.1734595711E-04       5    8    1         0.1012839003E-02      0.2483443023E-02

    ------------------------------------------------
       NWT REQUIRED            6 OUTER ITERATIONS 
       AND A TOTAL OF         11 INNER ITERATIONS.
    ------------------------------------------------

 NO OUTPUT CONTROL FOR STRESS PERIOD   18   TIME STEP    3
 
 SOLVING FOR HEAD 
                                                   Max.-Head-Change                         Max.-Flux-Residual
  Residual-Control   Outer-Iter.   Inner-Iter.     Column Row Layer    Maximum-Head-Change  Column Row Layer    Maximum-Flux-Residual          L2-NORM 
          0                 1           2             5    8     1       0.8041882386E-01       5    8    1         0.4376993606E+01      0.1029934669E+02
          0                 2           2             5    7     1      -0.1038884467E+00       5    8    1        -0.5715690265E+01      0.1386775052E+02
          0                 3           2             4    7     1       0.6482206907E-01       5    8    1         0.3587931172E+01      0.8777160935E+01
          0                 4           2             4    7     1      -0.9565588815E-01       5    8    1        -0.5424705485E+01      0.1328732806E+02
          0                 5           2             4    7     1       0.1179423662E-02       4    7    1         0.6873297961E-01      0.1683944859E+00
          0                 6           1             4    7     1       0.1734604997E-04       5    8    1         0.1012840031E-02      0.2483423897E-02

    ------------------------------------------------
       NWT REQUIRED            6 OUTER ITERATIONS 
       AND A TOTAL OF         11 INNER ITERATIONS.
    ------------------------------------------------

 NO OUTPUT CONTROL FOR STRESS PERIOD   18   TIME STEP    4
 
 SOLVING FOR HEAD 
                                                   Max.-Head-Change                         Max.-Flux-Residual
  Residual-Control   Outer-Iter.   Inner-Iter.     Column Row Layer    Maximum-Head-Change  Column Row Layer    Maximum-Flux-Residual          L2-NORM 
          0                 1           2             5    8     1       0.8081454295E-01       5    8    1         0.4397643123E+01      0.1037272526E+02
          0                 2           2             5    7     1      -0.1039579639E+00       5    8    1        -0.5717755150E+01      0.1387612581E+02
          0                 3           2             4    7     1       0.6482906779E-01       5    8    1         0.3588075723E+01      0.8777744499E+01
          0                 4           2             4    7     1      -0.9565639259E-01       5    8    1        -0.5424711388E+01      0.1328735191E+02
          0                 5           2             4    7     1       0.1179429879E-02       4    7    1         0.6873317967E-01      0.1683947821E+00
          0                 6           1             4    7     1       0.1734614149E-04       5    8    1         0.1012841036E-02      0.2483427606E-02

    ------------------------------------------------
       NWT REQUIRED            6 OUTER ITERATIONS 
       AND A TOTAL OF         11 INNER ITERATIONS.
    ------------------------------------------------

 NO OUTPUT CONTROL FOR STRESS PERIOD   18   TIME STEP    5
 
 SOLVING FOR HEAD 
                                                   Max.-Head-Change                         Max.-Flux-Residual
  Residual-Control   Outer-Iter.   Inner-Iter.     Column Row Layer    Maximum-Head-Change  Column Row Layer    Maximum-Flux-Residual          L2-NORM 
          0                 1           2             5    8     1       0.8120834951E-01       5    8    1         0.4418208946E+01      0.1044520336E+02
          0                 2           2             5    7     1      -0.1040261591E+00       5    8    1        -0.5719811667E+01      0.1388436509E+02
          0                 3           2             4    7     1       0.6483592044E-01       5    8    1         0.3588219687E+01      0.8778318745E+01
          0                 4           2             4    7     1      -0.9565688808E-01       5    8    1        -0.5424717268E+01      0.1328737538E+02
          0                 5           2             4    7     1       0.1179435988E-02       4    7    1         0.6873337553E-01      0.1683951044E+00
          0                 6           1             4    7     1       0.1734623110E-04       5    8    1         0.1012842047E-02      0.2485103021E-02

    ------------------------------------------------
       NWT REQUIRED            6 OUTER ITERATIONS 
       AND A TOTAL OF         11 INNER ITERATIONS.
    ------------------------------------------------

 NO OUTPUT CONTROL FOR STRESS PERIOD   18   TIME STEP    6
 
 SOLVING FOR HEAD 
                                                   Max.-Head-Change                         Max.-Flux-Residual
  Residual-Control   Outer-Iter.   Inner-Iter.     Column Row Layer    Maximum-Head-Change  Column Row Layer    Maximum-Flux-Residual          L2-NORM 
          0                 1           2             5    8     1       0.8159969568E-01       5    8    1         0.4438659913E+01      0.1051675614E+02
          0                 2           2             5    7     1      -0.1040930619E+00       5    8    1        -0.5721856700E+01      0.1389247118E+02
          0                 3           2             4    7     1       0.6484262957E-01       5    8    1         0.3588362848E+01      0.8778883804E+01
          0                 4           2             4    7     1      -0.9565737475E-01       5    8    1        -0.5424723130E+01      0.1328739848E+02
          0                 5           2             4    7     1       0.1179441986E-02       4    7    1         0.6873356722E-01      0.1683953687E+00
          0                 6           1             4    7     1       0.1734631926E-04       5    8    1         0.1012842571E-02      0.2483434907E-02

    ------------------------------------------------
       NWT REQUIRED            6 OUTER ITERATIONS 
       AND A TOTAL OF         11 INNER ITERATIONS.
    ------------------------------------------------

 NO OUTPUT CONTROL FOR STRESS PERIOD   18   TIME STEP    7
 
 SOLVING FOR HEAD 
                                                   Max.-Head-Change                         Max.-Flux-Residual
  Residual-Control   Outer-Iter.   Inner-Iter.     Column Row Layer    Maximum-Head-Change  Column Row Layer    Maximum-Flux-Residual          L2-NORM 
          0                 1           2             5    8     1       0.8198872043E-01       5    8    1         0.4458992997E+01      0.1058738617E+02
          0                 2           2             5    7     1      -0.1041587323E+00       5    8    1        -0.5723889949E+01      0.1390044648E+02
          0                 3           2             4    7     1       0.6484920134E-01       5    8    1         0.3588505184E+01      0.8779439913E+01
          0                 4           2             4    7     1      -0.9565785299E-01       5    8    1        -0.5424728957E+01      0.1328742122E+02
          0                 5           2             4    7     1       0.1179447881E-02       4    7    1         0.6873375492E-01      0.1683956563E+00
          0                 6           1             4    7     1       0.1734640618E-04       5    8    1         0.1012843236E-02      0.2483438248E-02

    ------------------------------------------------
       NWT REQUIRED            6 OUTER ITERATIONS 
       AND A TOTAL OF         11 INNER ITERATIONS.
    ------------------------------------------------

 NO OUTPUT CONTROL FOR STRESS PERIOD   18   TIME STEP    8
 
 SOLVING FOR HEAD 
                                                   Max.-Head-Change                         Max.-Flux-Residual
  Residual-Control   Outer-Iter.   Inner-Iter.     Column Row Layer    Maximum-Head-Change  Column Row Layer    Maximum-Flux-Residual          L2-NORM 
          0                 1           2             5    8     1       0.8237538329E-01       5    8    1         0.4479207273E+01      0.1065702372E+02
          0                 2           2             5    7     1      -0.1042231831E+00       5    8    1        -0.5725911322E+01      0.1390828769E+02
          0                 3           2             4    7     1       0.6485563710E-01       5    8    1         0.3588646686E+01      0.8779987097E+01
          0                 4           2             4    7     1      -0.9565832288E-01       5    8    1        -0.5424734723E+01      0.1328744358E+02
          0                 5           2             4    7     1       0.1179453673E-02       4    7    1         0.6873393868E-01      0.1683959360E+00
          0                 6           1             4    7     1       0.1734649131E-04       5    8    1         0.1012844247E-02      0.2483586398E-02

    ------------------------------------------------
       NWT REQUIRED            6 OUTER ITERATIONS 
       AND A TOTAL OF         11 INNER ITERATIONS.
    ------------------------------------------------

 NO OUTPUT CONTROL FOR STRESS PERIOD   18   TIME STEP    9
 
 SOLVING FOR HEAD 
                                                   Max.-Head-Change                         Max.-Flux-Residual
  Residual-Control   Outer-Iter.   Inner-Iter.     Column Row Layer    Maximum-Head-Change  Column Row Layer    Maximum-Flux-Residual          L2-NORM 
          0                 1           2             5    8     1       0.8275923708E-01       5    8    1         0.4499290778E+01      0.1072574956E+02
          0                 2           2             5    7     1      -0.1042864649E+00       5    8    1        -0.5727919617E+01      0.1391600589E+02
          0                 3           2             4    7     1       0.6486194824E-01       5    8    1         0.3588800404E+01      0.8780525661E+01
          0                 4           2             4    7     1      -0.9565879036E-01       5    6    1        -0.5424734985E+01      0.1328746559E+02
          0                 5           2             4    7     1       0.1179451049E-02       4    7    1         0.6873411875E-01      0.1683962086E+00
          0                 6           1             4    7     1       0.1734645278E-04       5    8    1         0.1013353053E-02      0.2483445885E-02

    ------------------------------------------------
       NWT REQUIRED            6 OUTER ITERATIONS 
       AND A TOTAL OF         11 INNER ITERATIONS.
    ------------------------------------------------

 NO OUTPUT CONTROL FOR STRESS PERIOD   18   TIME STEP   10
 
 SOLVING FOR HEAD 
                                                   Max.-Head-Change                         Max.-Flux-Residual
  Residual-Control   Outer-Iter.   Inner-Iter.     Column Row Layer    Maximum-Head-Change  Column Row Layer    Maximum-Flux-Residual          L2-NORM 
          0                 1           2             5    8     1       0.8314785267E-01       5    8    1         0.4519256826E+01      0.1079356674E+02
          0                 2           2             5    7     1      -0.1043488125E+00       5    8    1        -0.5729916419E+01      0.1392360061E+02
          0                 3           2             4    7     1       0.6486812996E-01       5    8    1         0.3588927056E+01      0.8781055731E+01
          0                 4           2             4    7     1      -0.9565925314E-01       5    8    1        -0.5424746172E+01      0.1328748725E+02
          0                 5           2             4    7     1       0.1179465143E-02       4    7    1         0.6873429517E-01      0.1683964787E+00
          0                 6           1             4    7     1       0.1734666023E-04       5    8    1         0.1012846130E-02      0.2483448620E-02

    ------------------------------------------------
       NWT REQUIRED            6 OUTER ITERATIONS 
       AND A TOTAL OF         11 INNER ITERATIONS.
    ------------------------------------------------

 NO OUTPUT CONTROL FOR STRESS PERIOD   18   TIME STEP   11
 
 SOLVING FOR HEAD 
                                                   Max.-Head-Change                         Max.-Flux-Residual
  Residual-Control   Outer-Iter.   Inner-Iter.     Column Row Layer    Maximum-Head-Change  Column Row Layer    Maximum-Flux-Residual          L2-NORM 
          0                 1           2             5    8     1       0.8353339804E-01       5    8    1         0.4539485586E+01      0.1086049526E+02
          0                 2           2             5    7     1      -0.1044091107E+00       5    8    1        -0.5731939235E+01      0.1393107361E+02
          0                 3           2             4    7     1       0.6487418234E-01       5    8    1         0.3589068659E+01      0.8781577397E+01
          0                 4           2             4    7     1      -0.9565969942E-01       5    8    1        -0.5424751954E+01      0.1328750857E+02
          0                 5           2             4    7     1       0.1179470645E-02       4    7    1         0.6873446786E-01      0.1683967442E+00
          0                 6           1             4    7     1       0.1734674089E-04       5    8    1         0.1012847118E-02      0.2484136825E-02

    ------------------------------------------------
       NWT REQUIRED            6 OUTER ITERATIONS 
       AND A TOTAL OF         11 INNER ITERATIONS.
    ------------------------------------------------

 NO OUTPUT CONTROL FOR STRESS PERIOD   18   TIME STEP   12
 
 SOLVING FOR HEAD 
                                                   Max.-Head-Change                         Max.-Flux-Residual
  Residual-Control   Outer-Iter.   Inner-Iter.     Column Row Layer    Maximum-Head-Change  Column Row Layer    Maximum-Flux-Residual          L2-NORM 
          0                 1           2             5    8     1       0.8391503797E-01       5    8    1         0.4559515338E+01      0.1092651107E+02
          0                 2           2             5    7     1      -0.1044683873E+00       5    8    1        -0.5733942151E+01      0.1393842686E+02
          0                 3           2             4    7     1       0.6488011340E-01       5    8    1         0.3589208869E+01      0.8782090837E+01
          0                 4           2             4    7     1      -0.9566013823E-01       5    8    1        -0.5424757678E+01      0.1328752956E+02
          0                 5           2             4    7     1       0.1179476054E-02       4    7    1         0.6873463707E-01      0.1683970057E+00
          0                 6           1             4    7     1       0.1734682064E-04       5    8    1         0.1012848090E-02      0.2483455051E-02

    ------------------------------------------------
       NWT REQUIRED            6 OUTER ITERATIONS 
       AND A TOTAL OF         11 INNER ITERATIONS.
    ------------------------------------------------

 NO OUTPUT CONTROL FOR STRESS PERIOD   18   TIME STEP   13
 
 SOLVING FOR HEAD 
                                                   Max.-Head-Change                         Max.-Flux-Residual
  Residual-Control   Outer-Iter.   Inner-Iter.     Column Row Layer    Maximum-Head-Change  Column Row Layer    Maximum-Flux-Residual          L2-NORM 
          0                 1           2             5    8     1       0.8429273035E-01       5    8    1         0.4579342511E+01      0.1099162268E+02
          0                 2           2             5    7     1      -0.1045266977E+00       5    8    1        -0.5735924811E+01      0.1394566352E+02
          0                 3           2             4    7     1       0.6488592770E-01       5    8    1         0.3589347660E+01      0.8782596212E+01
          0                 4           2             4    7     1      -0.9566056984E-01       5    8    1        -0.5424763345E+01      0.1328755021E+02
          0                 5           2             4    7     1       0.1179481374E-02       4    7    1         0.6873480286E-01      0.1683972631E+00
          0                 6           1             4    7     1       0.1734689849E-04       5    8    1         0.1012849054E-02      0.2483458243E-02

    ------------------------------------------------
       NWT REQUIRED            6 OUTER ITERATIONS 
       AND A TOTAL OF         11 INNER ITERATIONS.
    ------------------------------------------------

 NO OUTPUT CONTROL FOR STRESS PERIOD   18   TIME STEP   14
 
 SOLVING FOR HEAD 
                                                   Max.-Head-Change                         Max.-Flux-Residual
  Residual-Control   Outer-Iter.   Inner-Iter.     Column Row Layer    Maximum-Head-Change  Column Row Layer    Maximum-Flux-Residual          L2-NORM 
          0                 1           2             5    8     1       0.8466629485E-01       5    8    1         0.4598957148E+01      0.1105581787E+02
          0                 2           2             5    7     1      -0.1045840361E+00       5    8    1        -0.5737886219E+01      0.1395278382E+02
          0                 3           2             4    7     1       0.6489162684E-01       5    8    1         0.3589484964E+01      0.8783093579E+01
          0                 4           2             4    7     1      -0.9566099434E-01       5    8    1        -0.5424768951E+01      0.1328757053E+02
          0                 5           2             4    7     1       0.1179486607E-02       4    7    1         0.6873496533E-01      0.1683975166E+00
          0                 6           1             4    7     1       0.1734697578E-04       5    8    1         0.1012850011E-02      0.2483461620E-02

    ------------------------------------------------
       NWT REQUIRED            6 OUTER ITERATIONS 
       AND A TOTAL OF         11 INNER ITERATIONS.
    ------------------------------------------------

 NO OUTPUT CONTROL FOR STRESS PERIOD   18   TIME STEP   15
 
 SOLVING FOR HEAD 
                                                   Max.-Head-Change                         Max.-Flux-Residual
  Residual-Control   Outer-Iter.   Inner-Iter.     Column Row Layer    Maximum-Head-Change  Column Row Layer    Maximum-Flux-Residual          L2-NORM 
          0                 1           2             5    8     1       0.8503585934E-01       5    8    1         0.4618365459E+01      0.1111912336E+02
          0                 2           2             5    7     1      -0.1046404416E+00       5    8    1        -0.5739826995E+01      0.1395979222E+02
          0                 3           2             4    7     1       0.6489721518E-01       5    8    1         0.3589620823E+01      0.8783583209E+01
          0                 4           2             4    7     1      -0.9566141200E-01       5    8    1        -0.5424774498E+01      0.1328759054E+02
          0                 5           2             4    7     1       0.1179491755E-02       4    7    1         0.6873512458E-01      0.1683977663E+00
          0                 6           1             4    7     1       0.1734705139E-04       5    8    1         0.1012850955E-02      0.2483464738E-02

    ------------------------------------------------
       NWT REQUIRED            6 OUTER ITERATIONS 
       AND A TOTAL OF         11 INNER ITERATIONS.
    ------------------------------------------------

 NO OUTPUT CONTROL FOR STRESS PERIOD   18   TIME STEP   16
 
 SOLVING FOR HEAD 
                                                   Max.-Head-Change                         Max.-Flux-Residual
  Residual-Control   Outer-Iter.   Inner-Iter.     Column Row Layer    Maximum-Head-Change  Column Row Layer    Maximum-Flux-Residual          L2-NORM 
          0                 1           2             5    8     1       0.1709940025E+00       5    8    1         0.9360542103E+01      0.1382532135E+02
          0                 2           2             4    7     1      -0.1044986698E+00       5    6    1        -0.5738276899E+01      0.1283806660E+02
          0                 3           2             4    7     1       0.6489656525E-01       5    6    1         0.3589512079E+01      0.8382627780E+01
          0                 4           2             4    7     1      -0.9565525578E-01       5    6    1        -0.5424775311E+01      0.1283873053E+02
          0                 5           2             5    8     1      -0.3157043300E-01       5    8    1        -0.1894428418E+01      0.1900656594E+01
          0                 6           2             5    8     1      -0.1366475979E-01       5    8    1        -0.8190634355E+00      0.8190660240E+00
          0                 7           1             5    8     1      -0.5914491158E-02       5    8    1        -0.3544870779E+00      0.3544885174E+00
          0                 8           1             5    8     1      -0.2559923487E-02       5    8    1        -0.1534273249E+00      0.1534280659E+00
          0                 9           1             5    8     1      -0.1107977374E-02       5    8    1        -0.6640517487E-01      0.6640550082E-01
          0                10           1             5    8     1      -0.4795447576E-03       5    8    1        -0.2874059800E-01      0.2874073930E-01
                                                   Max.-Head-Change                         Max.-Flux-Residual
  Residual-Control   Outer-Iter.   Inner-Iter.     Column Row Layer    Maximum-Head-Change  Column Row Layer    Maximum-Flux-Residual          L2-NORM 
          0                11           1             5    8     1      -0.2075495376E-03       5    8    1        -0.1243896090E-01      0.1243902206E-01
          0                12           1             5    8     1      -0.8982738702E-04       5    8    1        -0.5383525791E-02      0.5383552266E-02

    ------------------------------------------------
       NWT REQUIRED           12 OUTER ITERATIONS 
       AND A TOTAL OF         18 INNER ITERATIONS.
    ------------------------------------------------

 NO OUTPUT CONTROL FOR STRESS PERIOD   18   TIME STEP   17
 
 SOLVING FOR HEAD 
                                                   Max.-Head-Change                         Max.-Flux-Residual
  Residual-Control   Outer-Iter.   Inner-Iter.     Column Row Layer    Maximum-Head-Change  Column Row Layer    Maximum-Flux-Residual          L2-NORM 
          0                 1           2             5    8     1       0.2343238863E+00       5    8    1         0.1284902677E+02      0.1645416004E+02
          0                 2           2             4    7     1      -0.1045606179E+00       5    6    1        -0.5740332510E+01      0.1274975598E+02
          0                 3           2             4    7     1       0.6490540425E-01       5    6    1         0.3589655934E+01      0.8556042136E+01
          0                 4           2             4    7     1      -0.9565413090E-01       5    6    1        -0.5424781167E+01      0.1276706626E+02
          0                 5           2             5    8     1      -0.2995069295E-01       5    8    1        -0.1797383713E+01      0.1803946821E+01
          0                 6           2             5    8     1      -0.1296336305E-01       5    8    1        -0.7770416863E+00      0.7770443740E+00
          0                 7           1             5    8     1      -0.5610769589E-02       5    8    1        -0.3362914230E+00      0.3362927829E+00
          0                 8           1             5    8     1      -0.2428406609E-02       5    8    1        -0.1455483910E+00      0.1455490945E+00
          0                 9           1             5    8     1      -0.1051028978E-02       5    8    1        -0.6299353762E-01      0.6299384724E-01
          0                10           1             5    8     1      -0.4548857414E-03       5    8    1        -0.2726335224E-01      0.2726348647E-01
                                                   Max.-Head-Change                         Max.-Flux-Residual
  Residual-Control   Outer-Iter.   Inner-Iter.     Column Row Layer    Maximum-Head-Change  Column Row Layer    Maximum-Flux-Residual          L2-NORM 
          0                11           1             5    8     1      -0.1968721687E-03       5    8    1        -0.1179931886E-01      0.1179937698E-01
          0                12           1             5    8     1      -0.8520414095E-04       5    8    1        -0.5106566740E-02      0.5106591904E-02

    ------------------------------------------------
       NWT REQUIRED           12 OUTER ITERATIONS 
       AND A TOTAL OF         18 INNER ITERATIONS.
    ------------------------------------------------

 NO OUTPUT CONTROL FOR STRESS PERIOD   18   TIME STEP   18
 
 SOLVING FOR HEAD 
                                                   Max.-Head-Change                         Max.-Flux-Residual
  Residual-Control   Outer-Iter.   Inner-Iter.     Column Row Layer    Maximum-Head-Change  Column Row Layer    Maximum-Flux-Residual          L2-NORM 
          0                 1           2             5    8     1       0.2218641936E+00       5    8    1         0.1215067278E+02      0.1601521107E+02
          0                 2           2             4    7     1      -0.1046573146E+00       5    6    1        -0.5742615535E+01      0.1278049411E+02
          0                 3           2             4    7     1       0.6491125594E-01       5    6    1         0.3589815819E+01      0.8521118673E+01
          0                 4           2             4    7     1      -0.9565493333E-01       5    6    1        -0.5424787698E+01      0.1278096908E+02
          0                 5           2             5    8     1      -0.3026828595E-01       5    8    1        -0.1816458637E+01      0.1822953183E+01
          0                 6           2             5    8     1      -0.1310040563E-01       5    8    1        -0.7852719186E+00      0.7852745847E+00
          0                 7           1             5    8     1      -0.5669902551E-02       5    8    1        -0.3398425689E+00      0.3398439465E+00
          0                 8           1             5    8     1      -0.2453921500E-02       5    8    1        -0.1470806380E+00      0.1470813499E+00
          0                 9           1             5    8     1      -0.1062037979E-02       5    8    1        -0.6365465852E-01      0.6365497178E-01
          0                10           1             5    8     1      -0.4596357281E-03       5    8    1        -0.2754860083E-01      0.2754873663E-01
                                                   Max.-Head-Change                         Max.-Flux-Residual
  Residual-Control   Outer-Iter.   Inner-Iter.     Column Row Layer    Maximum-Head-Change  Column Row Layer    Maximum-Flux-Residual          L2-NORM 
          0                11           1             5    8     1      -0.1989215699E-03       5    8    1        -0.1192239004E-01      0.1192244884E-01
          0                12           1             5    8     1      -0.8608834322E-04       5    8    1        -0.5159664901E-02      0.5159690406E-02

    ------------------------------------------------
       NWT REQUIRED           12 OUTER ITERATIONS 
       AND A TOTAL OF         18 INNER ITERATIONS.
    ------------------------------------------------

 NO OUTPUT CONTROL FOR STRESS PERIOD   18   TIME STEP   19
 
 SOLVING FOR HEAD 
                                                   Max.-Head-Change                         Max.-Flux-Residual
  Residual-Control   Outer-Iter.   Inner-Iter.     Column Row Layer    Maximum-Head-Change  Column Row Layer    Maximum-Flux-Residual          L2-NORM 
          0                 1           2             5    8     1       0.2050230148E+00       5    8    1         0.1121205553E+02      0.1541707109E+02
          0                 2           2             4    7     1      -0.1047590743E+00       5    6    1        -0.5745071471E+01      0.1282476936E+02
          0                 3           2             4    7     1       0.6491700710E-01       5    6    1         0.3589987805E+01      0.8470110724E+01
          0                 4           2             4    7     1      -0.9565599048E-01       5    6    1        -0.5424794726E+01      0.1280596182E+02
          0                 5           2             5    8     1      -0.3053301461E-01       5    8    1        -0.1832358594E+01      0.1838797117E+01
          0                 6           2             5    8     1      -0.1308573358E-01       5    8    1        -0.7844053886E+00      0.7844080621E+00
          0                 7           1             5    8     1      -0.5608158365E-02       5    8    1        -0.3361471801E+00      0.3361485716E+00
          0                 8           1             5    8     1      -0.2403458199E-02       5    8    1        -0.1440583362E+00      0.1440590488E+00
          0                 9           1             5    8     1      -0.1030023388E-02       5    8    1        -0.6173681344E-01      0.6173712403E-01
          0                10           1             5    8     1      -0.4414198401E-03       5    8    1        -0.2645724357E-01      0.2645737690E-01
                                                   Max.-Head-Change                         Max.-Flux-Residual
  Residual-Control   Outer-Iter.   Inner-Iter.     Column Row Layer    Maximum-Head-Change  Column Row Layer    Maximum-Flux-Residual          L2-NORM 
          0                11           1             5    8     1      -0.1891693976E-03       5    8    1        -0.1133807458E-01      0.1133813172E-01
          0                12           1             5    8     1      -0.8106701605E-04       5    8    1        -0.4858792088E-02      0.4858816581E-02

    ------------------------------------------------
       NWT REQUIRED           12 OUTER ITERATIONS 
       AND A TOTAL OF         18 INNER ITERATIONS.
    ------------------------------------------------

 NO OUTPUT CONTROL FOR STRESS PERIOD   18   TIME STEP   20
 
 SOLVING FOR HEAD 
                                                   Max.-Head-Change                         Max.-Flux-Residual
  Residual-Control   Outer-Iter.   Inner-Iter.     Column Row Layer    Maximum-Head-Change  Column Row Layer    Maximum-Flux-Residual          L2-NORM 
          0                 1           2             5    8     1       0.1872798461E+00       5    8    1         0.1022548242E+02      0.1481230367E+02
          0                 2           2             4    7     1      -0.1048627713E+00       5    6    1        -0.5747640614E+01      0.1287932511E+02
          0                 3           2             4    7     1       0.6492290433E-01       5    6    1         0.3590167702E+01      0.8422226762E+01
          0                 4           2             4    7     1      -0.9565702492E-01       5    6    1        -0.5424802076E+01      0.1282990179E+02
          0                 5           2             5    8     1      -0.3081600522E-01       5    8    1        -0.1849346279E+01      0.1855725985E+01
          0                 6           2             5    8     1      -0.1310267081E-01       5    8    1        -0.7854304772E+00      0.7854331527E+00
          0                 7           1             5    8     1      -0.5571049540E-02       5    8    1        -0.3339270176E+00      0.3339284238E+00
          0                 8           1             5    8     1      -0.2368690020E-02       5    8    1        -0.1419761377E+00      0.1419768525E+00
          0                 9           1             5    8     1      -0.1007102247E-02       5    8    1        -0.6036371939E-01      0.6036402852E-01
          0                10           1             5    8     1      -0.4281865972E-03       5    8    1        -0.2566440022E-01      0.2566453187E-01
                                                   Max.-Head-Change                         Max.-Flux-Residual
  Residual-Control   Outer-Iter.   Inner-Iter.     Column Row Layer    Maximum-Head-Change  Column Row Layer    Maximum-Flux-Residual          L2-NORM 
          0                11           1             5    8     1      -0.1820483559E-03       5    8    1        -0.1091140044E-01      0.1091145643E-01
          0                12           1             5    8     1      -0.7739887504E-04       5    8    1        -0.4638996908E-02      0.4639020728E-02

    ------------------------------------------------
       NWT REQUIRED           12 OUTER ITERATIONS 
       AND A TOTAL OF         18 INNER ITERATIONS.
    ------------------------------------------------

 NO OUTPUT CONTROL FOR STRESS PERIOD   18   TIME STEP   21
 
 SOLVING FOR HEAD 
                                                   Max.-Head-Change                         Max.-Flux-Residual
  Residual-Control   Outer-Iter.   Inner-Iter.     Column Row Layer    Maximum-Head-Change  Column Row Layer    Maximum-Flux-Residual          L2-NORM 
          0                 1           2             5    8     1       0.1728771575E+00       5    8    1         0.9425021764E+01      0.1435955074E+02
          0                 2           2             4    7     1      -0.1049662711E+00       4    8    1        -0.5751218071E+01      0.1293488461E+02
          0                 3           2             4    7     1       0.6492903868E-01       4    8    1         0.3590413252E+01      0.8385699751E+01
          0                 4           2             4    7     1      -0.9565798236E-01       4    8    1        -0.5424833770E+01      0.1285047042E+02
          0                 5           2             5    8     1      -0.3094892126E-01       5    8    1        -0.1857332153E+01      0.1863684626E+01
          0                 6           2             5    8     1      -0.1302827884E-01       5    8    1        -0.7809785713E+00      0.7809812692E+00
          0                 7           1             5    8     1      -0.5484311823E-02       5    8    1        -0.3287309662E+00      0.3287323909E+00
          0                 8           1             5    8     1      -0.2308613021E-02       5    8    1        -0.1383764426E+00      0.1383771547E+00
          0                 9           1             5    8     1      -0.9717938849E-03       5    8    1        -0.5824792753E-01      0.5824830401E-01
          0                10           1             5    8     1      -0.4090639893E-03       5    8    1        -0.2451846006E-01      0.2451873070E-01
                                                   Max.-Head-Change                         Max.-Flux-Residual
  Residual-Control   Outer-Iter.   Inner-Iter.     Column Row Layer    Maximum-Head-Change  Column Row Layer    Maximum-Flux-Residual          L2-NORM 
          0                11           1             5    8     1      -0.1721878181E-03       5    8    1        -0.1032048359E-01      0.1032054244E-01
          0                12           1             5    8     1      -0.7247824885E-04       5    8    1        -0.4344112032E-02      0.4344134970E-02

    ------------------------------------------------
       NWT REQUIRED           12 OUTER ITERATIONS 
       AND A TOTAL OF         18 INNER ITERATIONS.
    ------------------------------------------------

 NO OUTPUT CONTROL FOR STRESS PERIOD   18   TIME STEP   22
 
 SOLVING FOR HEAD 
                                                   Max.-Head-Change                         Max.-Flux-Residual
  Residual-Control   Outer-Iter.   Inner-Iter.     Column Row Layer    Maximum-Head-Change  Column Row Layer    Maximum-Flux-Residual          L2-NORM 
          0                 1           2             5    8     1       0.1608932202E+00       5    8    1         0.8759447033E+01      0.1401066838E+02
          0                 2           2             5    7     1      -0.1051495310E+00       4    8    1        -0.5760308058E+01      0.1298204795E+02
          0                 3           2             4    7     1       0.6493534081E-01       4    8    1         0.3591049196E+01      0.8359323762E+01
          0                 4           2             4    7     1      -0.9565877019E-01       4    8    1        -0.5424859808E+01      0.1286328502E+02
          0                 5           2             5    8     1      -0.3121937495E-01       5    8    1        -0.1873557698E+01      0.1879855415E+01
          0                 6           2             5    8     1      -0.1314203650E-01       5    8    1        -0.7878029135E+00      0.7878055892E+00
          0                 7           1             5    8     1      -0.5532159534E-02       5    8    1        -0.3316012300E+00      0.3316026572E+00
          0                 8           1             5    8     1      -0.2328737985E-02       5    8    1        -0.1395836717E+00      0.1395843903E+00
          0                 9           1             5    8     1      -0.9802584119E-03       5    8    1        -0.5875568094E-01      0.5875598868E-01
          0                10           1             5    8     1      -0.4126241043E-03       5    8    1        -0.2473201520E-01      0.2473214497E-01
                                                   Max.-Head-Change                         Max.-Flux-Residual
  Residual-Control   Outer-Iter.   Inner-Iter.     Column Row Layer    Maximum-Head-Change  Column Row Layer    Maximum-Flux-Residual          L2-NORM 
          0                11           1             5    8     1      -0.1736851536E-03       5    8    1        -0.1041030110E-01      0.1041035574E-01
          0                12           1             5    8     1      -0.7310799844E-04       5    8    1        -0.4381887152E-02      0.4381910173E-02

    ------------------------------------------------
       NWT REQUIRED           12 OUTER ITERATIONS 
       AND A TOTAL OF         18 INNER ITERATIONS.
    ------------------------------------------------

 NO OUTPUT CONTROL FOR STRESS PERIOD   18   TIME STEP   23
 
 SOLVING FOR HEAD 
                                                   Max.-Head-Change                         Max.-Flux-Residual
  Residual-Control   Outer-Iter.   Inner-Iter.     Column Row Layer    Maximum-Head-Change  Column Row Layer    Maximum-Flux-Residual          L2-NORM 
          0                 1           2             5    8     1       0.2150313051E+00       5    8    1         0.1174394501E+02      0.1610647470E+02
          0                 2           2             4    7     1      -0.1051567483E+00       4    8    1        -0.5767424427E+01      0.1285363227E+02
          0                 3           2             4    7     1       0.6494602873E-01       4    8    1         0.3591550168E+01      0.8525282134E+01
          0                 4           2             4    7     1      -0.9565727700E-01       4    8    1        -0.5424879657E+01      0.1276920817E+02
          0                 5           2             5    8     1      -0.3087113216E-01       5    8    1        -0.1852716722E+01      0.1859084816E+01
          0                 6           2             5    8     1      -0.1375291897E-01       5    8    1        -0.8244376182E+00      0.8244401729E+00
          0                 7           2             5    8     1      -0.6126769049E-02       5    8    1        -0.3672503930E+00      0.3672518089E+00
          0                 8           1             5    8     1      -0.2729371587E-02       5    8    1        -0.1636011031E+00      0.1636018510E+00
          0                 9           1             5    8     1      -0.1215873595E-02       5    8    1        -0.7287982150E-01      0.7288015990E-01
          0                10           1             5    8     1      -0.5416376235E-03       5    8    1        -0.3246559094E-01      0.3246574192E-01
                                                   Max.-Head-Change                         Max.-Flux-Residual
  Residual-Control   Outer-Iter.   Inner-Iter.     Column Row Layer    Maximum-Head-Change  Column Row Layer    Maximum-Flux-Residual          L2-NORM 
          0                11           1             5    8     1      -0.2412814147E-03       5    8    1        -0.1446218910E-01      0.1446225636E-01
          0                12           1             5    8     1      -0.1074814643E-03       5    8    1        -0.6442277619E-02      0.6442307586E-02
          0                13           1             5    8     1      -0.4787821356E-04       5    8    1        -0.2869719862E-02      0.2869733211E-02

    ------------------------------------------------
       NWT REQUIRED           13 OUTER ITERATIONS 
       AND A TOTAL OF         20 INNER ITERATIONS.
    ------------------------------------------------

 NO OUTPUT CONTROL FOR STRESS PERIOD   18   TIME STEP   24
 
 SOLVING FOR HEAD 
                                                   Max.-Head-Change                         Max.-Flux-Residual
  Residual-Control   Outer-Iter.   Inner-Iter.     Column Row Layer    Maximum-Head-Change  Column Row Layer    Maximum-Flux-Residual          L2-NORM 
          0                 1           2             5    8     1       0.1888094972E+00       5    8    1         0.1028933476E+02      0.1518645894E+02
          0                 2           2             5    7     1      -0.1052836593E+00       4    8    1        -0.5782252119E+01      0.1290827397E+02
          0                 3           2             4    7     1       0.6495170547E-01       4    8    1         0.3592586582E+01      0.8448970083E+01
          0                 4           2             4    7     1      -0.9565853489E-01       4    8    1        -0.5424922286E+01      0.1280164289E+02
          0                 5           2             5    8     1      -0.3163215820E-01       5    8    1        -0.1898363387E+01      0.1904579005E+01
          0                 6           2             5    8     1      -0.1409176198E-01       5    8    1        -0.8447604265E+00      0.8447629378E+00
          0                 7           2             5    8     1      -0.6277635058E-02       5    8    1        -0.3762985018E+00      0.3762999573E+00
          0                 8           1             5    8     1      -0.2796542080E-02       5    8    1        -0.1676295609E+00      0.1676303280E+00
          0                 9           1             5    8     1      -0.1245779715E-02       5    8    1        -0.7467338083E-01      0.7467372783E-01
          0                10           1             5    8     1      -0.5549524672E-03       5    8    1        -0.3326411396E-01      0.3326426877E-01
                                                   Max.-Head-Change                         Max.-Flux-Residual
  Residual-Control   Outer-Iter.   Inner-Iter.     Column Row Layer    Maximum-Head-Change  Column Row Layer    Maximum-Flux-Residual          L2-NORM 
          0                11           1             5    8     1      -0.2472093929E-03       5    8    1        -0.1481770066E-01      0.1481776964E-01
          0                12           1             5    8     1      -0.1101206602E-03       5    8    1        -0.6600553443E-02      0.6600584179E-02
          0                13           1             5    8     1      -0.4905319526E-04       5    8    1        -0.2940184293E-02      0.2940198009E-02

    ------------------------------------------------
       NWT REQUIRED           13 OUTER ITERATIONS 
       AND A TOTAL OF         20 INNER ITERATIONS.
    ------------------------------------------------

 NO OUTPUT CONTROL FOR STRESS PERIOD   18   TIME STEP   25
 
 SOLVING FOR HEAD 
                                                   Max.-Head-Change                         Max.-Flux-Residual
  Residual-Control   Outer-Iter.   Inner-Iter.     Column Row Layer    Maximum-Head-Change  Column Row Layer    Maximum-Flux-Residual          L2-NORM 
          0                 1           2             5    8     1       0.1818025492E+00       5    8    1         0.9894138403E+01      0.1508955484E+02
          0                 2           2             5    7     1      -0.1054720972E+00       5    7    1        -0.5787982071E+01      0.1197078001E+02
          0                 3           2             4    7     1       0.6458767456E-01       5    7    1         0.3592986988E+01      0.7854288428E+01
          0                 4           2             4    7     1      -0.9545459920E-01       5    7    1        -0.5424936530E+01      0.1242569769E+02
          0                 5           2             4    8     1      -0.3435000426E-01       4    8    1        -0.1997044888E+01      0.2763665727E+01
          0                 6           2             5    8     1      -0.1444316440E-01       5    8    1        -0.8620951170E+00      0.8973333264E+00
          0                 7           2             5    8     1      -0.6434099648E-02       5    8    1        -0.3857395388E+00      0.3857534238E+00
          0                 8           1             5    8     1      -0.2866209091E-02       5    8    1        -0.1718119719E+00      0.1718124333E+00
          0                 9           1             5    8     1      -0.1276799062E-02       5    8    1        -0.7653588409E-01      0.7653609017E-01
          0                10           1             5    8     1      -0.5687637056E-03       5    8    1        -0.3409337546E-01      0.3409346739E-01
                                                   Max.-Head-Change                         Max.-Flux-Residual
  Residual-Control   Outer-Iter.   Inner-Iter.     Column Row Layer    Maximum-Head-Change  Column Row Layer    Maximum-Flux-Residual          L2-NORM 
          0                11           1             5    8     1      -0.2533587131E-03       5    8    1        -0.1518691799E-01      0.1518695897E-01
          0                12           1             5    8     1      -0.1128585510E-03       5    8    1        -0.6764940321E-02      0.6764958568E-02
          0                13           1             5    8     1      -0.5027218424E-04       5    8    1        -0.3013373464E-02      0.3013381750E-02

    ------------------------------------------------
       NWT REQUIRED           13 OUTER ITERATIONS 
       AND A TOTAL OF         20 INNER ITERATIONS.
    ------------------------------------------------

 NO OUTPUT CONTROL FOR STRESS PERIOD   18   TIME STEP   26
 
 SOLVING FOR HEAD 
                                                   Max.-Head-Change                         Max.-Flux-Residual
  Residual-Control   Outer-Iter.   Inner-Iter.     Column Row Layer    Maximum-Head-Change  Column Row Layer    Maximum-Flux-Residual          L2-NORM 
          0                 1           2             4    8     1       0.2782642918E+00       4    8    1         0.1493107982E+02      0.2040551553E+02
          0                 2           2             4    6     1      -0.1048023186E+00       4    6    1        -0.5712446269E+01      0.1059638101E+02
          0                 3           2             4    8     1       0.6603515837E-01       4    6    1         0.3587702597E+01      0.7616908837E+01
          0                 4           2             4    7     1      -0.9505422313E-01       4    6    1        -0.5424716982E+01      0.1184500918E+02
          0                 5           2             5    8     1      -0.3224789228E-01       5    8    1        -0.1895283991E+01      0.2675525611E+01
          0                 6           2             5    8     1      -0.1457509459E-01       5    8    1        -0.8631345440E+00      0.1122320252E+01
          0                 7           2             5    8     1      -0.6582867008E-02       5    8    1        -0.3899878760E+00      0.4972637471E+00
          0                 8           2             5    8     1      -0.2971224771E-02       5    8    1        -0.1761194614E+00      0.2205886528E+00
          0                 9           2             5    8     1      -0.1340275277E-02       5    8    1        -0.7948426108E-01      0.9794629686E-01
          0                10           2             5    8     1      -0.6042407164E-03       5    8    1        -0.3585056067E-01      0.4352754024E-01
                                                   Max.-Head-Change                         Max.-Flux-Residual
  Residual-Control   Outer-Iter.   Inner-Iter.     Column Row Layer    Maximum-Head-Change  Column Row Layer    Maximum-Flux-Residual          L2-NORM 
          0                11           2             5    8     1      -0.2722708450E-03       5    8    1        -0.1616109663E-01      0.1935865565E-01
          0                12           1             5    8     1      -0.1226263003E-03       5    8    1        -0.7281539640E-02      0.8615637836E-02
          0                13           1             5    8     1      -0.5520421610E-04       5    8    1        -0.3279208883E-02      0.3836803317E-02

    ------------------------------------------------
       NWT REQUIRED           13 OUTER ITERATIONS 
       AND A TOTAL OF         24 INNER ITERATIONS.
    ------------------------------------------------

 NO OUTPUT CONTROL FOR STRESS PERIOD   18   TIME STEP   27
 
 SOLVING FOR HEAD 
                                                   Max.-Head-Change                         Max.-Flux-Residual
  Residual-Control   Outer-Iter.   Inner-Iter.     Column Row Layer    Maximum-Head-Change  Column Row Layer    Maximum-Flux-Residual          L2-NORM 
          0                 1           2             4    8     1       0.2652027287E+00       4    8    1         0.1421418226E+02      0.2607492654E+02
          0                 2           2             4    6     1      -0.1034596524E+00       4    6    1        -0.5715283650E+01      0.8260958645E+01
          0                 3           2             4    7     1       0.6486182328E-01       4    6    1         0.3587900545E+01      0.7952584605E+01
          0                 4           2             4    7     1      -0.9484105433E-01       4    6    1        -0.5424725578E+01      0.1102606558E+02
          0                 5           2             5    8     1      -0.3223833375E-01       5    8    1        -0.1881527585E+01      0.3567312534E+01
          0                 6           2             5    8     1      -0.1478787555E-01       5    8    1        -0.8645624737E+00      0.1583116816E+01
          0                 7           2             5    8     1      -0.6770886126E-02       5    8    1        -0.3964646616E+00      0.7042648552E+00
          0                 8           2             5    8     1      -0.3095126731E-02       5    8    1        -0.1814813072E+00      0.3137722254E+00
          0                 9           2             5    8     1      -0.1412796498E-02       5    8    1        -0.8293993275E-01      0.1399775389E+00
          0                10           2             5    8     1      -0.6440422382E-03       5    8    1        -0.3785065296E-01      0.6251630668E-01
                                                   Max.-Head-Change                         Max.-Flux-Residual
  Residual-Control   Outer-Iter.   Inner-Iter.     Column Row Layer    Maximum-Head-Change  Column Row Layer    Maximum-Flux-Residual          L2-NORM 
          0                11           2             5    8     1      -0.2932511960E-03       5    8    1        -0.1725142888E-01      0.2794816487E-01
          0                12           2             5    8     1      -0.1333847357E-03       5    8    1        -0.7853709984E-02      0.1250488089E-01
          0                13           1             5    8     1      -0.6061186542E-04       5    8    1        -0.3571675968E-02      0.5599126021E-02

    ------------------------------------------------
       NWT REQUIRED           13 OUTER ITERATIONS 
       AND A TOTAL OF         25 INNER ITERATIONS.
    ------------------------------------------------

 NO OUTPUT CONTROL FOR STRESS PERIOD   18   TIME STEP   28
 
 SOLVING FOR HEAD 
                                                   Max.-Head-Change                         Max.-Flux-Residual
  Residual-Control   Outer-Iter.   Inner-Iter.     Column Row Layer    Maximum-Head-Change  Column Row Layer    Maximum-Flux-Residual          L2-NORM 
          0                 1           2             5    6     1       0.2781013925E+00       5    6    1         0.1508849057E+02      0.2738652800E+02
          0                 2           2             4    7     1      -0.1035753491E+00       4    6    1        -0.5734204051E+01      0.8320247402E+01
          0                 3           2             5    6     1       0.6522761614E-01       4    6    1         0.3589587600E+01      0.8169316723E+01
          0                 4           2             4    7     1      -0.9484375799E-01       4    6    1        -0.5421503686E+01      0.1101814878E+02
          0                 5           2             5    8     1      -0.3220260258E-01       5    8    1        -0.1879351218E+01      0.3449790112E+01
          0                 6           2             5    8     1      -0.1477196399E-01       5    8    1        -0.8636102734E+00      0.1505969982E+01
          0                 7           2             5    8     1      -0.6763570898E-02       5    8    1        -0.3960394544E+00      0.6593755617E+00
          0                 8           2             5    8     1      -0.3091626106E-02       5    8    1        -0.1812849472E+00      0.2893319639E+00
          0                 9           2             5    8     1      -0.1411051687E-02       5    8    1        -0.8284547193E-01      0.1272203183E+00
          0                10           2             5    8     1      -0.6431420471E-03       5    8    1        -0.3780333448E-01      0.5604867407E-01
                                                   Max.-Head-Change                         Max.-Flux-Residual
  Residual-Control   Outer-Iter.   Inner-Iter.     Column Row Layer    Maximum-Head-Change  Column Row Layer    Maximum-Flux-Residual          L2-NORM 
          0                11           2             5    8     1      -0.2927752378E-03       5    8    1        -0.1722691830E-01      0.2473841833E-01
          0                12           1             5    8     1      -0.1331294833E-03       5    8    1        -0.7840715630E-02      0.1093761251E-01
          0                13           1             5    8     1      -0.6047419742E-04       5    8    1        -0.3564697063E-02      0.4843530853E-02

    ------------------------------------------------
       NWT REQUIRED           13 OUTER ITERATIONS 
       AND A TOTAL OF         24 INNER ITERATIONS.
    ------------------------------------------------

 NO OUTPUT CONTROL FOR STRESS PERIOD   18   TIME STEP   29
 
 SOLVING FOR HEAD 
                                                   Max.-Head-Change                         Max.-Flux-Residual
  Residual-Control   Outer-Iter.   Inner-Iter.     Column Row Layer    Maximum-Head-Change  Column Row Layer    Maximum-Flux-Residual          L2-NORM 
          0                 1           2             5    7     1       0.2508293019E+00       5    7    1         0.1343565805E+02      0.2595758361E+02
          0                 2           2             4    7     1      -0.1044118335E+00       4    7    1        -0.5766371476E+01      0.8313045832E+01
          0                 3           2             4    7     1       0.6491580348E-01       4    7    1         0.3591549701E+01      0.7916470579E+01
          0                 4           2             4    7     1      -0.9488661310E-01       4    6    1        -0.5424859703E+01      0.1105183252E+02
          0                 5           2             5    8     1      -0.3218411350E-01       5    8    1        -0.1876603357E+01      0.3553825190E+01
          0                 6           2             5    8     1      -0.1476481044E-01       5    8    1        -0.8616553236E+00      0.1568534445E+01
          0                 7           2             5    8     1      -0.6767197824E-02       5    8    1        -0.3952293107E+00      0.6957660103E+00
          0                 8           2             5    8     1      -0.3099043126E-02       5    8    1        -0.1811193931E+00      0.3098417862E+00
          0                 9           2             5    8     1      -0.1418152059E-02       5    8    1        -0.8293228487E-01      0.1384704530E+00
          0                10           2             5    8     1      -0.6485287374E-03       5    8    1        -0.3794576603E-01      0.6208023014E-01
                                                   Max.-Head-Change                         Max.-Flux-Residual
  Residual-Control   Outer-Iter.   Inner-Iter.     Column Row Layer    Maximum-Head-Change  Column Row Layer    Maximum-Flux-Residual          L2-NORM 
          0                11           2             5    8     1      -0.2964000625E-03       5    8    1        -0.1735075584E-01      0.2791073134E-01
          0                12           2             4    8     1      -0.1363963596E-03       5    8    1        -0.7929026179E-02      0.1257943211E-01
          0                13           1             4    8     1      -0.6277679644E-04       4    8    1        -0.3645038365E-02      0.5681769305E-02

    ------------------------------------------------
       NWT REQUIRED           13 OUTER ITERATIONS 
       AND A TOTAL OF         25 INNER ITERATIONS.
    ------------------------------------------------

 NO OUTPUT CONTROL FOR STRESS PERIOD   18   TIME STEP   30



 STREAM LISTING     PERIOD     18   STEP       30

 LAYER ROW COL. STREAM  RCH.  FLOW INTO     FLOW TO   FLOW OUT OF   OVRLND.     DIRECT     STREAM       STREAM     STREAM     STREAM   STREAMBED  STREAMBED
                SEG.NO.  NO.  STRM. RCH.    AQUIFER    STRM. RCH.    RUNOFF     PRECIP       ET          HEAD       DEPTH      WIDTH   CONDCTNC.   GRADIENT

   1    1    1     1     1    2.3625E+01  2.3872E-01   2.3387E+01  0.000E+00  0.000E+00  0.000E+00  1.09421E+03  1.157E+00  1.276E+01  5.742E-02  1.386E+00
   1    2    2     1     2    2.3387E+01  3.6909E-01   2.3018E+01  0.000E+00  0.000E+00  0.000E+00  1.08921E+03  1.153E+00  1.270E+01  8.888E-02  1.384E+00
   1    3    3     1     3    2.3018E+01  3.1418E-01   2.2703E+01  0.000E+00  0.000E+00  0.000E+00  1.08357E+03  1.147E+00  1.263E+01  7.575E-02  1.382E+00
   1    3    4     1     4    2.2703E+01  2.8882E-01   2.2415E+01  0.000E+00  0.000E+00  0.000E+00  1.07855E+03  1.143E+00  1.256E+01  6.972E-02  1.381E+00
   1    4    5     2     1    2.0415E+01  3.1702E-01   2.0098E+01  0.000E+00  0.000E+00  0.000E+00  1.07300E+03  1.064E+00  1.200E+01  7.800E-02  1.355E+00
   1    5    6     2     2    2.0098E+01  2.4333E-01   1.9854E+01  0.000E+00  0.000E+00  0.000E+00  1.06756E+03  1.055E+00  1.200E+01  6.000E-02  1.352E+00
   1    6    6     2     3    1.9854E+01  2.4286E-01   1.9611E+01  0.000E+00  0.000E+00  0.000E+00  1.06284E+03  1.048E+00  1.200E+01  6.000E-02  1.349E+00
   1    7    6     2     4    1.9611E+01  2.4240E-01   1.9369E+01  0.000E+00  0.000E+00  0.000E+00  1.05812E+03  1.040E+00  1.200E+01  6.000E-02  1.347E+00
   1    8    6     2     5    1.9369E+01  2.4193E-01   1.9127E+01  0.000E+00  0.000E+00  0.000E+00  1.05339E+03  1.032E+00  1.200E+01  6.000E-02  1.344E+00
   1    3    5     3     1    2.0000E+00  2.8252E-01   1.7175E+00  0.000E+00  0.000E+00  0.000E+00  1.07555E+03  1.909E+00  9.636E+00  7.227E-02  1.955E+00
   1    3    6     3     2    1.7175E+00  2.4905E-01   1.4684E+00  0.000E+00  0.000E+00  0.000E+00  1.07264E+03  1.727E+00  8.909E+00  6.682E-02  1.864E+00
   1    3    7     3     3    1.4684E+00  1.9718E-01   1.2712E+00  0.000E+00  0.000E+00  0.000E+00  1.06987E+03  1.555E+00  8.218E+00  5.547E-02  1.777E+00
   1    4    8     3     4    1.2712E+00  2.2567E-01   1.0456E+00  0.000E+00  0.000E+00  0.000E+00  1.06682E+03  1.364E+00  7.455E+00  6.709E-02  1.682E+00
   1    5    8     3     5    1.0456E+00  1.5790E-01   8.8768E-01  0.000E+00  0.000E+00  0.000E+00  1.06362E+03  1.164E+00  6.655E+00  4.991E-02  1.582E+00
   1    6    8     3     6    8.8768E-01  5.5980E-02   8.3170E-01  0.000E+00  0.000E+00  0.000E+00  1.06158E+03  1.036E+00  6.145E+00  1.844E-02  1.518E+00
   1    5   10     4     1    1.0000E+01  9.0919E-02   9.9091E+00  0.000E+00  0.000E+00  0.000E+00  1.07836E+03  6.368E-01  1.000E+01  2.500E-02  1.212E+00
   1    5    9     4     2    9.9091E+00  1.8158E-01   9.7275E+00  0.000E+00  0.000E+00  0.000E+00  1.07154E+03  6.315E-01  1.000E+01  5.000E-02  1.211E+00
   1    6    8     4     3    9.7275E+00  1.2689E-01   9.6006E+00  0.000E+00  0.000E+00  0.000E+00  1.06381E+03  6.256E-01  1.000E+01  3.500E-02  1.209E+00
   1    6    8     5     1    1.0432E+01  2.2686E-01   1.0205E+01  0.000E+00  0.000E+00  0.000E+00  1.05868E+03  6.790E-01  1.542E+01  6.166E-02  1.226E+00
   1    7    7     5     2    1.0205E+01  2.7894E-01   9.9265E+00  0.000E+00  0.000E+00  0.000E+00  1.05417E+03  6.732E-01  1.519E+01  7.594E-02  1.224E+00
   1    8    7     5     3    9.9265E+00  1.9221E-01   9.7343E+00  0.000E+00  0.000E+00  0.000E+00  1.04992E+03  6.676E-01  1.497E+01  5.241E-02  1.223E+00
   1    8    6     5     4    9.7343E+00  1.3577E-01   9.5985E+00  0.000E+00  0.000E+00  0.000E+00  1.04691E+03  6.637E-01  1.482E+01  3.706E-02  1.221E+00
   1    9    6     6     1    9.5985E+00  2.2097E-01   9.3776E+00  0.000E+00  0.000E+00  0.000E+00  1.04341E+03  6.828E-01  1.200E+01  6.000E-02  1.228E+00
   1   10    7     6     2    9.3776E+00  2.2039E-01   9.1572E+00  0.000E+00  0.000E+00  0.000E+00  1.03885E+03  6.732E-01  1.200E+01  6.000E-02  1.224E+00
   1   11    7     6     3    9.1572E+00  2.1981E-01   8.9374E+00  0.000E+00  0.000E+00  0.000E+00  1.03430E+03  6.636E-01  1.200E+01  6.000E-02  1.221E+00
   1   12    7     6     4    8.9374E+00  2.1923E-01   8.7181E+00  0.000E+00  0.000E+00  0.000E+00  1.02974E+03  6.539E-01  1.200E+01  6.000E-02  1.218E+00
   1   13    7     6     5    8.7181E+00 -6.9160E-03   8.7250E+00  0.000E+00  0.000E+00  0.000E+00  1.02656E+03  6.491E-01  1.200E+01  2.400E-01 -9.606E-03
   1   14    9     7     1    1.5000E+02  1.3766E+00   1.4862E+02  0.000E+00  0.000E+00  0.000E+00  1.03987E+03  2.288E+00  5.529E+01  5.593E-01  8.204E-01
   1   13    8     7     2    1.4862E+02  1.9795E+00   1.4664E+02  0.000E+00  0.000E+00  0.000E+00  1.03478E+03  2.279E+00  5.525E+01  6.147E-01  1.073E+00
   1   13    7     7     3    1.4664E+02  1.7316E+00   1.4491E+02  0.000E+00  0.000E+00  0.000E+00  1.02969E+03  2.269E+00  5.521E+01  5.584E-01  1.034E+00
   1   13    6     8     1    1.5364E+02  1.0896E+00   1.5255E+02  0.000E+00  0.000E+00  0.000E+00  1.02471E+03  2.838E+00  4.116E+01  4.194E-01  8.659E-01
   1   13    5     8     2    1.5255E+02  3.4806E-01   1.5220E+02  0.000E+00  0.000E+00  0.000E+00  1.01846E+03  2.833E+00  4.109E+01  4.187E-01  2.771E-01
   1   13    4     8     3    1.5220E+02 -1.8208E+00   1.5402E+02  0.000E+00  0.000E+00  0.000E+00  1.01221E+03  2.839E+00  4.116E+01  4.194E+00 -1.447E-01
   1   13    3     8     4    1.5402E+02 -3.3458E+00   1.5737E+02  0.000E+00  0.000E+00  0.000E+00  1.00598E+03  2.856E+00  4.142E+01  4.221E+00 -2.642E-01
   1   13    2     8     5    1.5737E+02 -2.5212E+00   1.5989E+02  0.000E+00  0.000E+00  0.000E+00  9.99752E+02  2.877E+00  4.171E+01  4.250E+00 -1.977E-01
   1   13    1     8     6    1.5989E+02 -1.9839E+00   1.6187E+02  0.000E+00  0.000E+00  0.000E+00  9.94767E+02  2.892E+00  4.193E+01  2.564E+00 -2.579E-01
   1    8    6     9     1    1.9127E+01  0.0000E+00   1.9127E+01  0.000E+00  0.000E+00  0.000E+00  1.08209E+03  3.344E+00  4.000E+00  0.000E+00  2.115E+00
   1    8    5     9     2    1.9127E+01  0.0000E+00   1.9127E+01  0.000E+00  0.000E+00  0.000E+00  1.08159E+03  3.344E+00  4.000E+00  0.000E+00  2.115E+00





UNSATURATED ZONE PACKAGE VOLUMETRIC BUDGET FOR  TIME STEP    30 STRESS PERIOD   18
  ------------------------------------------------------------------------------



     CUMULATIVE VOLUMES      L**3       RATES FOR THIS TIME STEP      L**3/T
     ------------------                 ------------------------

           IN:                                      IN:
           ---                                      ---
        INFILTRATION =  2346933246.7861          INFILTRATION =          64.1838

          OUT:                                     OUT:
          ----                                     ----
              UZF ET =   472792280.3138                UZF ET =           8.3175
        UZF RECHARGE =  1125945172.1582          UZF RECHARGE =          53.7225

            IN - OUT =   748195794.3141              IN - OUT =           2.1439

          STORAGE:                                 STORAGE:
          --------                                 --------
      STORAGE CHANGE =   748190797.5664        STORAGE CHANGE =           2.1439

 PERCENT DISCREPANCY IS DIFFERENCE BETWEEN IN-OUT MINUS CHANGE IN STORAGE
 DIVIDED BY THE AVERAGE OF IN AND OUT TIMES 100

 PERCENT DISCREPANCY =           0.00     PERCENT DISCREPANCY =           0.00






1
  VOLUMETRIC BUDGET FOR AGRICULTURAL FIELDS AT  END OF TIME STEP   30, STRESS PERIOD  18
  ------------------------------------------------------------------------------

     CUMULATIVE VOLUMES      L**3       RATES FOR THIS TIME STEP      L**3/T
     ------------------                 ------------------------

           IN:                                      IN:
           ---                                      ---
               AG WELLS  =  1920767616.0000                 AG WELLS  =          44.2090
      DIVERSION SEGMENTS =   388195040.0000        DIVERSION SEGMENTS =          19.1270
           GW IRRIGATION =           0.0000             GW IRRIGATION =           0.0000
           SW IRRIGATION =           0.0000             SW IRRIGATION =           0.0000
        SYSTEM LOSSES GW =           0.0000          SYSTEM LOSSES GW =           0.0000
        SYSTEM LOSSES SW =           0.0000          SYSTEM LOSSES SW =           0.0000

                TOTAL IN =  2308962560.0000                  TOTAL IN =          63.3360

          OUT:                                     OUT:
          ----                                     ----
               AG WELLS  =           0.0000                 AG WELLS  =           0.0000
      DIVERSION SEGMENTS =           0.0000        DIVERSION SEGMENTS =           0.0000
           GW IRRIGATION =  1920767616.0000             GW IRRIGATION =          44.2090
           SW IRRIGATION =   388202112.0000             SW IRRIGATION =          19.1274
        SYSTEM LOSSES GW =           0.0000          SYSTEM LOSSES GW =           0.0000
        SYSTEM LOSSES SW =           0.0000          SYSTEM LOSSES SW =           0.0000

               TOTAL OUT =  2308969728.0000                 TOTAL OUT =          63.3363

                IN - OUT =       -7168.0000                  IN - OUT =      -3.8147E-04

     PERCENT DISCREPANCY =          -0.00         PERCENT DISCREPANCY =          -0.00



1
  VOLUMETRIC BUDGET FOR ENTIRE MODEL AT END OF TIME STEP   30, STRESS PERIOD  18
  ------------------------------------------------------------------------------

     CUMULATIVE VOLUMES      L**3       RATES FOR THIS TIME STEP      L**3/T
     ------------------                 ------------------------

           IN:                                      IN:
           ---                                      ---
             STORAGE     =  2201266944.0000               STORAGE     =          22.7987
       CONSTANT HEAD     =           0.0000         CONSTANT HEAD     =           0.0000
     HEAD DEP BOUNDS     =    12903683.0000       HEAD DEP BOUNDS     =           0.2885
      STREAM LEAKAGE     =   531071200.0000        STREAM LEAKAGE     =          12.3055
        UZF RECHARGE     =  1125945216.0000          UZF RECHARGE     =          53.7225
               GW ET     =           0.0000                 GW ET     =           0.0000
     SURFACE LEAKAGE     =           0.0000       SURFACE LEAKAGE     =           0.0000
           AG WELLS      =           0.0000             AG WELLS      =           0.0000

                TOTAL IN =  3871186944.0000                  TOTAL IN =          89.1152

          OUT:                                     OUT:
          ----                                     ----
             STORAGE     =  1486572544.0000               STORAGE     =          34.9459
       CONSTANT HEAD     =           0.0000         CONSTANT HEAD     =           0.0000
     HEAD DEP BOUNDS     =    12887076.0000       HEAD DEP BOUNDS     =           0.2865
      STREAM LEAKAGE     =   450901760.0000        STREAM LEAKAGE     =           9.6786
        UZF RECHARGE     =           0.0000          UZF RECHARGE     =           0.0000
               GW ET     =           0.0000                 GW ET     =           0.0000
     SURFACE LEAKAGE     =           0.0000       SURFACE LEAKAGE     =           0.0000
           AG WELLS      =  1920767616.0000             AG WELLS      =          44.2090

               TOTAL OUT =  3871129088.0000                 TOTAL OUT =          89.1200

                IN - OUT =       57856.0000                  IN - OUT =      -4.7607E-03

     PERCENT DISCREPANCY =           0.00         PERCENT DISCREPANCY =          -0.01






         TIME SUMMARY AT END OF TIME STEP   30 IN STRESS PERIOD   18
                    SECONDS     MINUTES      HOURS       DAYS        YEARS
                    -----------------------------------------------------------
   TIME STEP LENGTH  87667.      1461.1      24.352      1.0147     2.77799E-03
 STRESS PERIOD TIME 2.63000E+06  43833.      730.56      30.440     8.33397E-02
         TOTAL TIME 4.47965E+07 7.46608E+05  12443.      518.48      1.4195    
1
1
                            STRESS PERIOD NO.   19, LENGTH =   2630000.    
                            -----------------------------------------------

                              NUMBER OF TIME STEPS =    30

                               MULTIPLIER FOR DELT =     1.000

                            INITIAL TIME STEP SIZE =   87666.66    

 REUSING NON-PARAMETER GHB CELLS FROM LAST STRESS PERIOD

      2 GHB CELLS

 REUSING STREAM SEGMENT DATA FROM LAST STRESS PERIOD



            AREAL INFILTRATION RATE
 READING ON UNIT   19 WITH FORMAT: (FREE)              

            1           2           3           4           5           6           7           8           9          10
 ........................................................................................................................
   1   1.0000E-10  2.0000E-10   0.000       0.000       0.000       0.000       0.000       0.000       0.000       0.000    
   2   2.0000E-10  1.0000E-10  2.0000E-10   0.000       0.000      8.0000E-10  8.0000E-10  5.0000E-10   0.000       0.000    
   3    0.000      5.0000E-10  1.0000E-10  1.0000E-10  8.0000E-10  8.0000E-10  5.0000E-10  5.0000E-10   0.000       0.000    
   4   8.0000E-10  5.0000E-10  1.0000E-10  1.0000E-10  1.0000E-10  1.0000E-10  1.0000E-10  1.0000E-10  2.0000E-10   0.000    
   5   8.0000E-10  5.0000E-10  1.0000E-10  1.0000E-10  1.0000E-10  1.0000E-10  1.0000E-10  1.0000E-10  1.0000E-10  1.0000E-10
   6   8.0000E-10  5.0000E-10  5.0000E-10  2.0000E-10  2.0000E-10  1.0000E-10  1.0000E-10  1.0000E-10  1.0000E-10  5.0000E-10
   7   8.0000E-10  5.0000E-10  5.0000E-10  2.0000E-10  2.0000E-10  1.0000E-10  1.0000E-10  2.0000E-10  2.0000E-10   0.000    
   8    0.000      5.0000E-10  5.0000E-10  2.0000E-10  2.0000E-10  1.0000E-10  1.0000E-10  2.0000E-10  5.0000E-10   0.000    
   9    0.000      5.0000E-10  5.0000E-10  2.0000E-10  2.0000E-10  1.0000E-10  1.0000E-10  2.0000E-10  5.0000E-10   0.000    
  10    0.000      5.0000E-10  5.0000E-10  2.0000E-10  2.0000E-10  1.0000E-10  1.0000E-10  2.0000E-10  5.0000E-10  8.0000E-10
  11    0.000      1.0000E-10  1.0000E-10  1.0000E-10  1.0000E-10  1.0000E-10  1.0000E-10  2.0000E-10  5.0000E-10   0.000    
  12   1.0000E-10  1.0000E-10  1.0000E-10  1.0000E-10  1.0000E-10  1.0000E-10  1.0000E-10  1.0000E-10  2.0000E-10   0.000    
  13   1.0000E-10  1.0000E-10  2.0000E-10  2.0000E-10  2.0000E-10  2.0000E-10  2.0000E-10  1.0000E-10  1.0000E-10   0.000    
  14    0.000      2.0000E-10  5.0000E-10  5.0000E-10  5.0000E-10  5.0000E-10  5.0000E-10  2.0000E-10  1.0000E-10   0.000    
  15    0.000       0.000      8.0000E-10  8.0000E-10  8.0000E-10  8.0000E-10   0.000       0.000       0.000       0.000    

                  ET RATE =  1.500000E-07

 USING ET EXTINCTION DEPTH FROM PREVIOUS STRESS PERIOD. CURRENT PERIOD IS:      19

 USING EXTINCTION WATER CONTENT FROM PREVIOUS STRESS PERIOD. CURRENT PERIOD IS:      19

 USING AIR ENTRY PRESSURE FROM PREVIOUS STRESS PERIOD. CURRENT PERIOD IS:      19

 USING ROOT PRESSURE HEAD FROM PREVIOUS STRESS PERIOD. CURRENT PERIOD IS:      19

 USING ROOT ACTIVITY FROM PREVIOUS STRESS PERIOD. CURRENT PERIOD IS:      19

 PROCESSING AG STRESS PERIOD DATA

 READING AG STRESS PERIOD DATA

 READING IRRIGATION SEGMENT

 READING IRRIGATION WELL

 READING SUPPLEMENTAL WELL

 END PROCESSING AG STRESS PERIOD DATA OPTIONS
 
 SOLVING FOR HEAD 
                                                   Max.-Head-Change                         Max.-Flux-Residual
  Residual-Control   Outer-Iter.   Inner-Iter.     Column Row Layer    Maximum-Head-Change  Column Row Layer    Maximum-Flux-Residual          L2-NORM 
          0                 1           2             5    7     1       0.2418152329E+00       5    7    1         0.1293698310E+02      0.2533196586E+02
          0                 2           2             5    7     1       0.8299359678E-01       5    7    1         0.4496000119E+01      0.8172656651E+01
          0                 3           2             4    8     1       0.3015058239E-01       5    7    1         0.1624417975E+01      0.2827839591E+01
          0                 4           2             4    8     1       0.1182993894E-01       4    8    1         0.6352115135E+00      0.1038102221E+01
          0                 5           2             4    8     1       0.4759390565E-02       4    8    1         0.2554781959E+00      0.3954065415E+00
          0                 6           2             4    8     1       0.1938423015E-02       4    8    1         0.1040382969E+00      0.1542442590E+00
          0                 7           2             4    8     1       0.7941226701E-03       4    8    1         0.4261817996E-01      0.6105999896E-01
          0                 8           2             4    8     1       0.3262271232E-03       4    8    1         0.1750684326E-01      0.2440604129E-01
          0                 9           2             4    8     1       0.1341836298E-03       4    8    1         0.7200770661E-02      0.9820378676E-02
          0                10           1             4    8     1       0.5522508849E-04       4    8    1         0.2963568154E-02      0.3970669703E-02

    ------------------------------------------------
       NWT REQUIRED           10 OUTER ITERATIONS 
       AND A TOTAL OF         19 INNER ITERATIONS.
    ------------------------------------------------

 OUTPUT CONTROL FOR STRESS PERIOD   19   TIME STEP    1
    PRINT BUDGET
    SAVE BUDGET
 UBDSV1 SAVING "         STORAGE" ON UNIT 102 AT TIME STEP  1, STRESS PERIOD  19
 UBDSV2 SAVING "   CONSTANT HEAD" ON UNIT 102 AT TIME STEP  1, STRESS PERIOD  19
 UBDSV1 SAVING "FLOW RIGHT FACE " ON UNIT 102 AT TIME STEP  1, STRESS PERIOD  19
 UBDSV1 SAVING "FLOW FRONT FACE " ON UNIT 102 AT TIME STEP  1, STRESS PERIOD  19

  HEAD DEP BOUNDS   PERIOD   19   STEP     1
 BOUNDARY      1   LAYER   1   ROW    13   COL     1   RATE   -0.286529    
 BOUNDARY      2   LAYER   1   ROW    14   COL     9   RATE    0.288539    



 STREAM LISTING     PERIOD     19   STEP        1

 LAYER ROW COL. STREAM  RCH.  FLOW INTO     FLOW TO   FLOW OUT OF   OVRLND.     DIRECT     STREAM       STREAM     STREAM     STREAM   STREAMBED  STREAMBED
                SEG.NO.  NO.  STRM. RCH.    AQUIFER    STRM. RCH.    RUNOFF     PRECIP       ET          HEAD       DEPTH      WIDTH   CONDCTNC.   GRADIENT

   1    1    1     1     1    2.1826E+01  2.3002E-01   2.1596E+01  0.000E+00  0.000E+00  0.000E+00  1.09418E+03  1.129E+00  1.238E+01  5.571E-02  1.376E+00
   1    2    2     1     2    2.1596E+01  3.5556E-01   2.1240E+01  0.000E+00  0.000E+00  0.000E+00  1.08918E+03  1.124E+00  1.232E+01  8.622E-02  1.375E+00
   1    3    3     1     3    2.1240E+01  3.0257E-01   2.0938E+01  0.000E+00  0.000E+00  0.000E+00  1.08354E+03  1.119E+00  1.224E+01  7.347E-02  1.373E+00
   1    3    4     1     4    2.0938E+01  2.7808E-01   2.0660E+01  0.000E+00  0.000E+00  0.000E+00  1.07852E+03  1.114E+00  1.218E+01  6.760E-02  1.371E+00
   1    4    5     2     1    1.8660E+01  3.1263E-01   1.8347E+01  0.000E+00  0.000E+00  0.000E+00  1.07294E+03  1.008E+00  1.200E+01  7.800E-02  1.336E+00
   1    5    6     2     2    1.8347E+01  2.3994E-01   1.8107E+01  0.000E+00  0.000E+00  0.000E+00  1.06751E+03  9.990E-01  1.200E+01  6.000E-02  1.333E+00
   1    6    6     2     3    1.8107E+01  2.3947E-01   1.7868E+01  0.000E+00  0.000E+00  0.000E+00  1.06278E+03  9.911E-01  1.200E+01  6.000E-02  1.330E+00
   1    7    6     2     4    1.7868E+01  2.3899E-01   1.7629E+01  0.000E+00  0.000E+00  0.000E+00  1.05806E+03  9.832E-01  1.200E+01  6.000E-02  1.328E+00
   1    8    6     2     5    1.7629E+01  2.3851E-01   1.7390E+01  0.000E+00  0.000E+00  0.000E+00  1.05333E+03  9.752E-01  1.200E+01  6.000E-02  1.325E+00
   1    3    5     3     1    2.0000E+00  2.8252E-01   1.7175E+00  0.000E+00  0.000E+00  0.000E+00  1.07555E+03  1.909E+00  9.636E+00  7.227E-02  1.955E+00
   1    3    6     3     2    1.7175E+00  2.4905E-01   1.4684E+00  0.000E+00  0.000E+00  0.000E+00  1.07264E+03  1.727E+00  8.909E+00  6.682E-02  1.864E+00
   1    3    7     3     3    1.4684E+00  1.9718E-01   1.2712E+00  0.000E+00  0.000E+00  0.000E+00  1.06987E+03  1.555E+00  8.218E+00  5.547E-02  1.777E+00
   1    4    8     3     4    1.2712E+00  2.2567E-01   1.0456E+00  0.000E+00  0.000E+00  0.000E+00  1.06682E+03  1.364E+00  7.455E+00  6.709E-02  1.682E+00
   1    5    8     3     5    1.0456E+00  1.5790E-01   8.8768E-01  0.000E+00  0.000E+00  0.000E+00  1.06362E+03  1.164E+00  6.655E+00  4.991E-02  1.582E+00
   1    6    8     3     6    8.8768E-01  5.5980E-02   8.3170E-01  0.000E+00  0.000E+00  0.000E+00  1.06158E+03  1.036E+00  6.145E+00  1.844E-02  1.518E+00
   1    5   10     4     1    1.0000E+01  9.0919E-02   9.9091E+00  0.000E+00  0.000E+00  0.000E+00  1.07836E+03  6.368E-01  1.000E+01  2.500E-02  1.212E+00
   1    5    9     4     2    9.9091E+00  1.8158E-01   9.7275E+00  0.000E+00  0.000E+00  0.000E+00  1.07154E+03  6.315E-01  1.000E+01  5.000E-02  1.211E+00
   1    6    8     4     3    9.7275E+00  1.2689E-01   9.6006E+00  0.000E+00  0.000E+00  0.000E+00  1.06381E+03  6.256E-01  1.000E+01  3.500E-02  1.209E+00
   1    6    8     5     1    1.0432E+01  2.2686E-01   1.0205E+01  0.000E+00  0.000E+00  0.000E+00  1.05868E+03  6.790E-01  1.542E+01  6.166E-02  1.226E+00
   1    7    7     5     2    1.0205E+01  2.7894E-01   9.9265E+00  0.000E+00  0.000E+00  0.000E+00  1.05417E+03  6.732E-01  1.519E+01  7.594E-02  1.224E+00
   1    8    7     5     3    9.9265E+00  1.9221E-01   9.7343E+00  0.000E+00  0.000E+00  0.000E+00  1.04992E+03  6.676E-01  1.497E+01  5.241E-02  1.223E+00
   1    8    6     5     4    9.7343E+00  1.3577E-01   9.5985E+00  0.000E+00  0.000E+00  0.000E+00  1.04691E+03  6.637E-01  1.482E+01  3.706E-02  1.221E+00
   1    9    6     6     1    9.5985E+00  2.2097E-01   9.3776E+00  0.000E+00  0.000E+00  0.000E+00  1.04341E+03  6.828E-01  1.200E+01  6.000E-02  1.228E+00
   1   10    7     6     2    9.3776E+00  2.2039E-01   9.1572E+00  0.000E+00  0.000E+00  0.000E+00  1.03885E+03  6.732E-01  1.200E+01  6.000E-02  1.224E+00
   1   11    7     6     3    9.1572E+00  2.1981E-01   8.9374E+00  0.000E+00  0.000E+00  0.000E+00  1.03430E+03  6.636E-01  1.200E+01  6.000E-02  1.221E+00
   1   12    7     6     4    8.9374E+00  2.1923E-01   8.7181E+00  0.000E+00  0.000E+00  0.000E+00  1.02974E+03  6.539E-01  1.200E+01  6.000E-02  1.218E+00
   1   13    7     6     5    8.7181E+00 -6.7733E-03   8.7249E+00  0.000E+00  0.000E+00  0.000E+00  1.02656E+03  6.491E-01  1.200E+01  2.400E-01 -9.407E-03
   1   14    9     7     1    1.5000E+02  1.3767E+00   1.4862E+02  0.000E+00  0.000E+00  0.000E+00  1.03987E+03  2.288E+00  5.529E+01  5.593E-01  8.205E-01
   1   13    8     7     2    1.4862E+02  1.9798E+00   1.4664E+02  0.000E+00  0.000E+00  0.000E+00  1.03478E+03  2.279E+00  5.525E+01  6.147E-01  1.074E+00
   1   13    7     7     3    1.4664E+02  1.7319E+00   1.4491E+02  0.000E+00  0.000E+00  0.000E+00  1.02969E+03  2.269E+00  5.521E+01  5.584E-01  1.034E+00
   1   13    6     8     1    1.5364E+02  1.0899E+00   1.5255E+02  0.000E+00  0.000E+00  0.000E+00  1.02471E+03  2.838E+00  4.116E+01  4.194E-01  8.662E-01
   1   13    5     8     2    1.5255E+02  3.4834E-01   1.5220E+02  0.000E+00  0.000E+00  0.000E+00  1.01846E+03  2.833E+00  4.109E+01  4.187E-01  2.773E-01
   1   13    4     8     3    1.5220E+02 -1.8198E+00   1.5402E+02  0.000E+00  0.000E+00  0.000E+00  1.01221E+03  2.839E+00  4.116E+01  4.194E+00 -1.446E-01
   1   13    3     8     4    1.5402E+02 -3.3451E+00   1.5736E+02  0.000E+00  0.000E+00  0.000E+00  1.00598E+03  2.856E+00  4.142E+01  4.221E+00 -2.642E-01
   1   13    2     8     5    1.5736E+02 -2.5203E+00   1.5988E+02  0.000E+00  0.000E+00  0.000E+00  9.99752E+02  2.877E+00  4.171E+01  4.250E+00 -1.977E-01
   1   13    1     8     6    1.5988E+02 -1.9830E+00   1.6187E+02  0.000E+00  0.000E+00  0.000E+00  9.94767E+02  2.892E+00  4.193E+01  2.564E+00 -2.578E-01
   1    8    6     9     1    1.7390E+01  0.0000E+00   1.7390E+01  0.000E+00  0.000E+00  0.000E+00  1.08191E+03  3.158E+00  4.000E+00  0.000E+00  2.053E+00
   1    8    5     9     2    1.7390E+01  0.0000E+00   1.7390E+01  0.000E+00  0.000E+00  0.000E+00  1.08141E+03  3.158E+00  4.000E+00  0.000E+00  2.053E+00



 UBDSV3 SAVING "           GW ET" ON UNIT  61 AT TIME STEP  1, STRESS PERIOD  19
 UBDSV3 SAVING "    UZF RECHARGE" ON UNIT  61 AT TIME STEP  1, STRESS PERIOD  19
 UBDSV3 SAVING " SURFACE LEAKAGE" ON UNIT  61 AT TIME STEP  1, STRESS PERIOD  19
 UBDSV3 SAVING "       HORT+DUNN" ON UNIT  61 AT TIME STEP  1, STRESS PERIOD  19
 UBDSV3 SAVING "  STORAGE CHANGE" ON UNIT  61 AT TIME STEP  1, STRESS PERIOD  19


UNSATURATED ZONE PACKAGE VOLUMETRIC BUDGET FOR  TIME STEP     1 STRESS PERIOD   19
  ------------------------------------------------------------------------------



     CUMULATIVE VOLUMES      L**3       RATES FOR THIS TIME STEP      L**3/T
     ------------------                 ------------------------

           IN:                                      IN:
           ---                                      ---
        INFILTRATION =  2349085648.6570          INFILTRATION =          24.5521

          OUT:                                     OUT:
          ----                                     ----
              UZF ET =   474836447.8097                UZF ET =          23.3175
        UZF RECHARGE =  1132370827.4082          UZF RECHARGE =          73.2964

            IN - OUT =   741878373.4391              IN - OUT =         -72.0618

          STORAGE:                                 STORAGE:
          --------                                 --------
      STORAGE CHANGE =   741873138.5201        STORAGE CHANGE =         -72.0646

 PERCENT DISCREPANCY IS DIFFERENCE BETWEEN IN-OUT MINUS CHANGE IN STORAGE
 DIVIDED BY THE AVERAGE OF IN AND OUT TIMES 100

 PERCENT DISCREPANCY =           0.00     PERCENT DISCREPANCY =           0.00






 

            AG WELLS      PERIOD   19   STEP   1
 AG WELL      1   LAYER   1   ROW     6   COL     4   RATE    -1.05236    
 AG WELL      2   LAYER   1   ROW     6   COL     5   RATE    -1.05236    
 AG WELL      3   LAYER   1   ROW     7   COL     4   RATE    -1.05236    
 AG WELL      4   LAYER   1   ROW     7   COL     5   RATE    -1.05236    
 AG WELL      5   LAYER   1   ROW     8   COL     4   RATE    -1.05236    
 AG WELL      6   LAYER   1   ROW     8   COL     5   RATE    -1.05236    
 
 

   DIVERSION SEGMENTS     PERIOD   19   STEP   1
 SEGMENT      9   RATE     17.3901    
 
 

        SW IRRIGATION     PERIOD   19   STEP   1
 SEGMENT      9   ROW     6   COL     4   RATE     2.89841    
 SEGMENT      9   ROW     6   COL     5   RATE     2.89841    
 SEGMENT      9   ROW     7   COL     4   RATE     2.89841    
 SEGMENT      9   ROW     7   COL     5   RATE     2.89841    
 SEGMENT      9   ROW     8   COL     4   RATE     2.89841    
 SEGMENT      9   ROW     8   COL     5   RATE     2.89841    
 
 

        GW IRRIGATION     PERIOD   19   STEP   1
 AG WELL      1   ROW     6   COL     4   RATE     1.05236    
 AG WELL      2   ROW     6   COL     5   RATE     1.05236    
 AG WELL      3   ROW     7   COL     4   RATE     1.05236    
 AG WELL      4   ROW     7   COL     5   RATE     1.05236    
 AG WELL      5   ROW     8   COL     4   RATE     1.05236    
 AG WELL      6   ROW     8   COL     5   RATE     1.05236    
 
1
  VOLUMETRIC BUDGET FOR AGRICULTURAL FIELDS AT  END OF TIME STEP    1, STRESS PERIOD  19
  ------------------------------------------------------------------------------

     CUMULATIVE VOLUMES      L**3       RATES FOR THIS TIME STEP      L**3/T
     ------------------                 ------------------------

           IN:                                      IN:
           ---                                      ---
               AG WELLS  =  1921321216.0000                 AG WELLS  =           6.3142
      DIVERSION SEGMENTS =   389719584.0000        DIVERSION SEGMENTS =          17.3901
           GW IRRIGATION =           0.0000             GW IRRIGATION =           0.0000
           SW IRRIGATION =           0.0000             SW IRRIGATION =           0.0000
        SYSTEM LOSSES GW =           0.0000          SYSTEM LOSSES GW =           0.0000
        SYSTEM LOSSES SW =           0.0000          SYSTEM LOSSES SW =           0.0000

                TOTAL IN =  2311040768.0000                  TOTAL IN =          23.7043

          OUT:                                     OUT:
          ----                                     ----
               AG WELLS  =           0.0000                 AG WELLS  =           0.0000
      DIVERSION SEGMENTS =           0.0000        DIVERSION SEGMENTS =           0.0000
           GW IRRIGATION =  1921321216.0000             GW IRRIGATION =           6.3142
           SW IRRIGATION =   389726688.0000             SW IRRIGATION =          17.3904
        SYSTEM LOSSES GW =           0.0000          SYSTEM LOSSES GW =           0.0000
        SYSTEM LOSSES SW =           0.0000          SYSTEM LOSSES SW =           0.0000

               TOTAL OUT =  2311047936.0000                 TOTAL OUT =          23.7046

                IN - OUT =       -7168.0000                  IN - OUT =      -3.4714E-04

     PERCENT DISCREPANCY =          -0.00         PERCENT DISCREPANCY =          -0.00



1
  VOLUMETRIC BUDGET FOR ENTIRE MODEL AT END OF TIME STEP    1, STRESS PERIOD  19
  ------------------------------------------------------------------------------

     CUMULATIVE VOLUMES      L**3       RATES FOR THIS TIME STEP      L**3/T
     ------------------                 ------------------------

           IN:                                      IN:
           ---                                      ---
             STORAGE     =  2202715648.0000               STORAGE     =          16.5257
       CONSTANT HEAD     =           0.0000         CONSTANT HEAD     =           0.0000
     HEAD DEP BOUNDS     =    12928978.0000       HEAD DEP BOUNDS     =           0.2885
      STREAM LEAKAGE     =   532144608.0000        STREAM LEAKAGE     =          12.2442
        UZF RECHARGE     =  1132370816.0000          UZF RECHARGE     =          73.2964
               GW ET     =           0.0000                 GW ET     =           0.0000
     SURFACE LEAKAGE     =           0.0000       SURFACE LEAKAGE     =           0.0000
           AG WELLS      =           0.0000             AG WELLS      =           0.0000

                TOTAL IN =  3880160256.0000                  TOTAL IN =         102.3549

          OUT:                                     OUT:
          ----                                     ----
             STORAGE     =  1494118528.0000               STORAGE     =          86.0763
       CONSTANT HEAD     =           0.0000         CONSTANT HEAD     =           0.0000
     HEAD DEP BOUNDS     =    12912195.0000       HEAD DEP BOUNDS     =           0.2865
      STREAM LEAKAGE     =   451749920.0000        STREAM LEAKAGE     =           9.6750
        UZF RECHARGE     =           0.0000          UZF RECHARGE     =           0.0000
               GW ET     =           0.0000                 GW ET     =           0.0000
     SURFACE LEAKAGE     =           0.0000       SURFACE LEAKAGE     =           0.0000
           AG WELLS      =  1921321216.0000             AG WELLS      =           6.3142

               TOTAL OUT =  3880101888.0000                 TOTAL OUT =         102.3520

                IN - OUT =       58368.0000                  IN - OUT =       2.8839E-03

     PERCENT DISCREPANCY =           0.00         PERCENT DISCREPANCY =           0.00






         TIME SUMMARY AT END OF TIME STEP    1 IN STRESS PERIOD   19
                    SECONDS     MINUTES      HOURS       DAYS        YEARS
                    -----------------------------------------------------------
   TIME STEP LENGTH  87667.      1461.1      24.352      1.0147     2.77799E-03
 STRESS PERIOD TIME  87667.      1461.1      24.352      1.0147     2.77799E-03
         TOTAL TIME 4.48841E+07 7.48069E+05  12468.      519.49      1.4223    
1
 
 SOLVING FOR HEAD 
                                                   Max.-Head-Change                         Max.-Flux-Residual
  Residual-Control   Outer-Iter.   Inner-Iter.     Column Row Layer    Maximum-Head-Change  Column Row Layer    Maximum-Flux-Residual          L2-NORM 
          0                 1           2             5    7     1       0.2288455284E+00       5    7    1         0.1222691762E+02      0.2421414871E+02
          0                 2           2             4    8     1       0.9227178689E-01       4    8    1         0.4935950831E+01      0.9072160827E+01
          0                 3           2             4    8     1       0.3814227846E-01       4    8    1         0.2040572873E+01      0.3627454259E+01
          0                 4           2             4    8     1       0.1576817842E-01       4    8    1         0.8435062146E+00      0.1460338755E+01
          0                 5           2             4    8     1       0.6518797438E-02       4    8    1         0.3487164369E+00      0.5898854549E+00
          0                 6           2             4    8     1       0.2694910609E-02       4    8    1         0.1441648609E+00      0.2389063320E+00
          0                 7           2             4    8     1       0.1114029626E-02       4    8    1         0.5959831546E-01      0.9695931092E-01
          0                 8           2             4    8     1       0.4604823549E-03       4    8    1         0.2463661688E-01      0.3941523736E-01
          0                 9           2             4    8     1       0.1903200484E-03       4    8    1         0.1018333179E-01      0.1604377914E-01
          0                10           1             4    8     1       0.7865119788E-04       4    8    1         0.4208743279E-02      0.6537423261E-02

    ------------------------------------------------
       NWT REQUIRED           10 OUTER ITERATIONS 
       AND A TOTAL OF         19 INNER ITERATIONS.
    ------------------------------------------------

 NO OUTPUT CONTROL FOR STRESS PERIOD   19   TIME STEP    2
 
 SOLVING FOR HEAD 
     PET DIFF ERROR     6    4    0.5666017649E-08    0.1500000053E-06
     PET DIFF ERROR     6    5    0.5665967226E-08    0.1500000053E-06
     PET DIFF ERROR     7    4    0.5665916807E-08    0.1500000053E-06
     PET DIFF ERROR     7    5    0.5666017649E-08    0.1500000053E-06
     PET DIFF ERROR     8    4    0.5665967226E-08    0.1500000053E-06
     PET DIFF ERROR     8    5    0.5666017649E-08    0.1500000053E-06
                                                   Max.-Head-Change                         Max.-Flux-Residual
  Residual-Control   Outer-Iter.   Inner-Iter.     Column Row Layer    Maximum-Head-Change  Column Row Layer    Maximum-Flux-Residual          L2-NORM 
          0                 1           2             4    7     1       0.2884465078E+00       4    7    1         0.1530229931E+02      0.2707044113E+02
     PET DIFF ERROR     6    4    0.5666009629E-08    0.1500000053E-06
     PET DIFF ERROR     6    5    0.5665959206E-08    0.1500000053E-06
     PET DIFF ERROR     7    4    0.5666009629E-08    0.1500000053E-06
     PET DIFF ERROR     7    5    0.5665908787E-08    0.1500000053E-06
     PET DIFF ERROR     8    4    0.5665959206E-08    0.1500000053E-06
     PET DIFF ERROR     8    5    0.5666009629E-08    0.1500000053E-06
          0                 2           2             4    7     1       0.1119236249E+00       4    7    1         0.5924667322E+01      0.1089417379E+02
     PET DIFF ERROR     6    4    0.5666009629E-08    0.1500000053E-06
     PET DIFF ERROR     6    5    0.5665959206E-08    0.1500000053E-06
     PET DIFF ERROR     7    4    0.5666009629E-08    0.1500000053E-06
     PET DIFF ERROR     7    5    0.5665908787E-08    0.1500000053E-06
     PET DIFF ERROR     8    4    0.5665959206E-08    0.1500000053E-06
     PET DIFF ERROR     8    5    0.5666009629E-08    0.1500000053E-06
          0                 3           2             4    7     1       0.4688491657E-01       4    7    1         0.2481467101E+01      0.4514983597E+01
     PET DIFF ERROR     6    4    0.5666009629E-08    0.1500000053E-06
     PET DIFF ERROR     6    5    0.5665959206E-08    0.1500000053E-06
     PET DIFF ERROR     7    4    0.5666009629E-08    0.1500000053E-06
     PET DIFF ERROR     7    5    0.5665908787E-08    0.1500000053E-06
     PET DIFF ERROR     8    4    0.5665959206E-08    0.1500000053E-06
     PET DIFF ERROR     8    5    0.5666009629E-08    0.1500000053E-06
          0                 4           2             4    7     1       0.1964627404E-01       4    7    1         0.1039542092E+01      0.1870600673E+01
     PET DIFF ERROR     6    4    0.5666009629E-08    0.1500000053E-06
     PET DIFF ERROR     6    5    0.5665959206E-08    0.1500000053E-06
     PET DIFF ERROR     7    4    0.5666009629E-08    0.1500000053E-06
     PET DIFF ERROR     7    5    0.5665908787E-08    0.1500000053E-06
     PET DIFF ERROR     8    4    0.5665959206E-08    0.1500000053E-06
     PET DIFF ERROR     8    5    0.5666009629E-08    0.1500000053E-06
          0                 5           2             4    7     1       0.8234432221E-02       4    7    1         0.4356284418E+00      0.7767360449E+00
     PET DIFF ERROR     6    4    0.5666009629E-08    0.1500000053E-06
     PET DIFF ERROR     6    5    0.5665959206E-08    0.1500000053E-06
     PET DIFF ERROR     7    4    0.5666009629E-08    0.1500000053E-06
     PET DIFF ERROR     7    5    0.5665908787E-08    0.1500000053E-06
     PET DIFF ERROR     8    4    0.5665959206E-08    0.1500000053E-06
     PET DIFF ERROR     8    5    0.5666009629E-08    0.1500000053E-06
          0                 6           2             4    7     1       0.3451986076E-02       4    7    1         0.1825950711E+00      0.3230528555E+00
     PET DIFF ERROR     6    4    0.5666009629E-08    0.1500000053E-06
     PET DIFF ERROR     6    5    0.5665959206E-08    0.1500000053E-06
     PET DIFF ERROR     7    4    0.5666009629E-08    0.1500000053E-06
     PET DIFF ERROR     7    5    0.5665908787E-08    0.1500000053E-06
     PET DIFF ERROR     8    4    0.5665959206E-08    0.1500000053E-06
     PET DIFF ERROR     8    5    0.5666009629E-08    0.1500000053E-06
          0                 7           2             4    7     1       0.1447324644E-02       4    7    1         0.7654898924E-01      0.1345257875E+00
     PET DIFF ERROR     6    4    0.5666009629E-08    0.1500000053E-06
     PET DIFF ERROR     6    5    0.5665959206E-08    0.1500000053E-06
     PET DIFF ERROR     7    4    0.5666009629E-08    0.1500000053E-06
     PET DIFF ERROR     7    5    0.5665908787E-08    0.1500000053E-06
     PET DIFF ERROR     8    4    0.5665959206E-08    0.1500000053E-06
     PET DIFF ERROR     8    5    0.5666009629E-08    0.1500000053E-06
          0                 8           2             4    7     1       0.6068865771E-03       4    7    1         0.3209575053E-01      0.5607097650E-01
     PET DIFF ERROR     6    4    0.5666009629E-08    0.1500000053E-06
     PET DIFF ERROR     6    5    0.5665959206E-08    0.1500000053E-06
     PET DIFF ERROR     7    4    0.5666009629E-08    0.1500000053E-06
     PET DIFF ERROR     7    5    0.5665908787E-08    0.1500000053E-06
     PET DIFF ERROR     8    4    0.5665959206E-08    0.1500000053E-06
     PET DIFF ERROR     8    5    0.5666009629E-08    0.1500000053E-06
          0                 9           2             4    7     1       0.2544953168E-03       4    7    1         0.1345851441E-01      0.2338706440E-01
     PET DIFF ERROR     6    4    0.5666009629E-08    0.1500000053E-06
     PET DIFF ERROR     6    5    0.5665959206E-08    0.1500000053E-06
     PET DIFF ERROR     7    4    0.5666009629E-08    0.1500000053E-06
     PET DIFF ERROR     7    5    0.5665908787E-08    0.1500000053E-06
     PET DIFF ERROR     8    4    0.5665959206E-08    0.1500000053E-06
     PET DIFF ERROR     8    5    0.5666009629E-08    0.1500000053E-06
          0                10           1             4    7     1       0.1067262492E-03       4    7    1         0.5643841447E-02      0.9759968707E-02
     PET DIFF ERROR     6    4    0.5666009629E-08    0.1500000053E-06
     PET DIFF ERROR     6    5    0.5665959206E-08    0.1500000053E-06
     PET DIFF ERROR     7    4    0.5666009629E-08    0.1500000053E-06
     PET DIFF ERROR     7    5    0.5665908787E-08    0.1500000053E-06
     PET DIFF ERROR     8    4    0.5665959206E-08    0.1500000053E-06
     PET DIFF ERROR     8    5    0.5666009629E-08    0.1500000053E-06
          0                11           1             4    7     1       0.4475818256E-04       4    7    1         0.2366843515E-02      0.4074788888E-02

    ------------------------------------------------
       NWT REQUIRED           11 OUTER ITERATIONS 
       AND A TOTAL OF         20 INNER ITERATIONS.
    ------------------------------------------------

 NO OUTPUT CONTROL FOR STRESS PERIOD   19   TIME STEP    3
     PET DIFF ERROR     6    4    0.5666009629E-08    0.1500000053E-06
     PET DIFF ERROR     6    5    0.5665959206E-08    0.1500000053E-06
     PET DIFF ERROR     7    4    0.5666009629E-08    0.1500000053E-06
     PET DIFF ERROR     7    5    0.5665908787E-08    0.1500000053E-06
     PET DIFF ERROR     8    4    0.5665959206E-08    0.1500000053E-06
     PET DIFF ERROR     8    5    0.5666009629E-08    0.1500000053E-06
 
 SOLVING FOR HEAD 
                                                   Max.-Head-Change                         Max.-Flux-Residual
  Residual-Control   Outer-Iter.   Inner-Iter.     Column Row Layer    Maximum-Head-Change  Column Row Layer    Maximum-Flux-Residual          L2-NORM 
          0                 1           2             4    7     1       0.2805563645E+00       4    6    1         0.1485887559E+02      0.2950984266E+02
          0                 2           2             4    7     1       0.4671779512E-01       4    7    1         0.2485457939E+01      0.3828183252E+01
          0                 3           2             4    7     1       0.7472818992E-01       4    7    1         0.3920739156E+01      0.8249413372E+01
          0                 4           2             4    7     1       0.3159969924E-01       4    7    1         0.1660325937E+01      0.3395646836E+01
          0                 5           2             4    7     1       0.1334126201E-01       4    7    1         0.7018493883E+00      0.1401710064E+01
          0                 6           2             4    7     1       0.5625088628E-02       4    7    1         0.2962315313E+00      0.5799098913E+00
          0                 7           2             4    7     1       0.2369003549E-02       4    7    1         0.1248694060E+00      0.2403417465E+00
          0                 8           2             4    7     1       0.9967290315E-03       4    7    1         0.5257754057E-01      0.9974777754E-01
          0                 9           2             4    7     1       0.4190087963E-03       4    7    1         0.2211732574E-01      0.4144344876E-01
          0                10           2             4    7     1       0.1760167036E-03       4    7    1         0.9296309400E-02      0.1723406653E-01
          0                11           1             4    7     1       0.7389440735E-04       4    7    1         0.3904653350E-02      0.7171683273E-02

    ------------------------------------------------
       NWT REQUIRED           11 OUTER ITERATIONS 
       AND A TOTAL OF         21 INNER ITERATIONS.
    ------------------------------------------------

 NO OUTPUT CONTROL FOR STRESS PERIOD   19   TIME STEP    4
 
 SOLVING FOR HEAD 
                                                   Max.-Head-Change                         Max.-Flux-Residual
  Residual-Control   Outer-Iter.   Inner-Iter.     Column Row Layer    Maximum-Head-Change  Column Row Layer    Maximum-Flux-Residual          L2-NORM 
          0                 1           2             4    7     1       0.2741343967E+00       4    7    1         0.1441602392E+02      0.2860807553E+02
          0                 2           2             4    7     1       0.6036412750E-01       4    7    1         0.3201209202E+01      0.5094141999E+01
          0                 3           2             4    7     1       0.7048465402E-01       4    7    1         0.3701976285E+01      0.7622559604E+01
          0                 4           2             4    7     1       0.2973020080E-01       4    7    1         0.1565653653E+01      0.3071712737E+01
          0                 5           2             4    7     1       0.1251518525E-01       4    7    1         0.6599709326E+00      0.1263121126E+01
          0                 6           2             4    7     1       0.5260815310E-02       4    7    1         0.2777312291E+00      0.5212299258E+00
          0                 7           2             4    7     1       0.2208792680E-02       4    7    1         0.1167146970E+00      0.2156687362E+00
          0                 8           2             4    7     1       0.9264739061E-03       4    7    1         0.4899283286E-01      0.8942200562E-01
          0                 9           2             4    7     1       0.3882953333E-03       4    7    1         0.2054624530E-01      0.3713543769E-01
          0                10           2             4    7     1       0.1626310380E-03       4    7    1         0.8609874769E-02      0.1544034931E-01
          0                11           1             4    7     1       0.6807818859E-04       4    7    1         0.3605660612E-02      0.6425796174E-02

    ------------------------------------------------
       NWT REQUIRED           11 OUTER ITERATIONS 
       AND A TOTAL OF         21 INNER ITERATIONS.
    ------------------------------------------------

 NO OUTPUT CONTROL FOR STRESS PERIOD   19   TIME STEP    5
 
 SOLVING FOR HEAD 
                                                   Max.-Head-Change                         Max.-Flux-Residual
  Residual-Control   Outer-Iter.   Inner-Iter.     Column Row Layer    Maximum-Head-Change  Column Row Layer    Maximum-Flux-Residual          L2-NORM 
          0                 1           2             4    7     1       0.2674718408E+00       4    7    1         0.1406848026E+02      0.2774767546E+02
          0                 2           2             4    7     1       0.5746911196E-01       4    7    1         0.3052977823E+01      0.4581156002E+01
          0                 3           2             4    7     1       0.6355165973E-01       4    7    1         0.3340833660E+01      0.6778530672E+01
          0                 4           2             4    7     1       0.2680784522E-01       4    7    1         0.1411354095E+01      0.2789298667E+01
          0                 5           2             4    7     1       0.1129415503E-01       4    7    1         0.5951388730E+00      0.1157079796E+01
          0                 6           2             4    7     1       0.4757108611E-02       4    7    1         0.2506789890E+00      0.4854437367E+00
          0                 7           2             4    7     1       0.2003624939E-02       4    7    1         0.1055856684E+00      0.2036797776E+00
          0                 8           2             4    7     1       0.8438595846E-03       4    7    1         0.4447082248E-01      0.8546464489E-01
          0                 9           2             4    7     1       0.3553868005E-03       4    7    1         0.1872945112E-01      0.3586339200E-01
          0                10           2             4    7     1       0.1496605084E-03       4    7    1         0.7887724065E-02      0.1505010857E-01
          0                11           1             4    7     1       0.6302108711E-04       4    7    1         0.3321641170E-02      0.6316096617E-02

    ------------------------------------------------
       NWT REQUIRED           11 OUTER ITERATIONS 
       AND A TOTAL OF         21 INNER ITERATIONS.
    ------------------------------------------------

 NO OUTPUT CONTROL FOR STRESS PERIOD   19   TIME STEP    6
 
 SOLVING FOR HEAD 
                                                   Max.-Head-Change                         Max.-Flux-Residual
  Residual-Control   Outer-Iter.   Inner-Iter.     Column Row Layer    Maximum-Head-Change  Column Row Layer    Maximum-Flux-Residual          L2-NORM 
          0                 1           2             4    7     1       0.2609526355E+00       4    7    1         0.1372728028E+02      0.2696513741E+02
          0                 2           2             4    6     1       0.4852431047E-01       4    6    1         0.2598787208E+01      0.4225326205E+01
          0                 3           2             4    6     1       0.5844738596E-01       4    6    1         0.3108023175E+01      0.6523972704E+01
          0                 4           2             4    6     1       0.2428249377E-01       4    6    1         0.1294448371E+01      0.2636529893E+01
          0                 5           2             4    6     1       0.1006162328E-01       4    6    1         0.5374712063E+00      0.1070289010E+01
          0                 6           2             4    6     1       0.4159890425E-02       4    6    1         0.2225944180E+00      0.4359781005E+00
          0                 7           2             4    6     1       0.1716689932E-02       4    6    1         0.9199158369E-01      0.1780627236E+00
          0                 8           2             4    6     1       0.7073382692E-03       4    6    1         0.3794958543E-01      0.7287043431E-01
          0                 9           2             4    6     1       0.2910682133E-03       4    6    1         0.1563202821E-01      0.2986681193E-01
          0                10           2             4    6     1       0.1196420570E-03       4    6    1         0.6430961645E-02      0.1225535344E-01
          0                11           1             4    6     1       0.4913255518E-04       4    6    1         0.2642863104E-02      0.5033181114E-02

    ------------------------------------------------
       NWT REQUIRED           11 OUTER ITERATIONS 
       AND A TOTAL OF         21 INNER ITERATIONS.
    ------------------------------------------------

 NO OUTPUT CONTROL FOR STRESS PERIOD   19   TIME STEP    7
 
 SOLVING FOR HEAD 
                                                   Max.-Head-Change                         Max.-Flux-Residual
  Residual-Control   Outer-Iter.   Inner-Iter.     Column Row Layer    Maximum-Head-Change  Column Row Layer    Maximum-Flux-Residual          L2-NORM 
          0                 1           2             4    7     1       0.2563143367E+00       4    7    1         0.1349000623E+02      0.2622960312E+02
          0                 2           2             4    7     1       0.4703581594E-01       4    7    1         0.2495200911E+01      0.3931379318E+01
          0                 3           2             4    7     1       0.5850217400E-01       4    7    1         0.3071318569E+01      0.6360511474E+01
          0                 4           2             4    7     1       0.2471397010E-01       4    7    1         0.1299622812E+01      0.2591949214E+01
          0                 5           2             4    7     1       0.1042147551E-01       4    7    1         0.5488041728E+00      0.1061174840E+01
          0                 6           2             4    7     1       0.4387836378E-02       4    7    1         0.2313444298E+00      0.4360608211E+00
          0                 7           2             4    7     1       0.1845032519E-02       4    7    1         0.9737710008E-01      0.1797047000E+00
          0                 8           2             4    7     1       0.7749460058E-03       4    7    1         0.4093595278E-01      0.7422387586E-01
          0                 9           2             4    7     1       0.3251777171E-03       4    7    1         0.1719023256E-01      0.3070982257E-01
          0                10           2             4    7     1       0.1363355852E-03       4    7    1         0.7211955991E-02      0.1272293609E-01
          0                11           1             4    7     1       0.5711958386E-04       4    7    1         0.3023250066E-02      0.5276433107E-02

    ------------------------------------------------
       NWT REQUIRED           11 OUTER ITERATIONS 
       AND A TOTAL OF         21 INNER ITERATIONS.
    ------------------------------------------------

 NO OUTPUT CONTROL FOR STRESS PERIOD   19   TIME STEP    8
 
 SOLVING FOR HEAD 
                                                   Max.-Head-Change                         Max.-Flux-Residual
  Residual-Control   Outer-Iter.   Inner-Iter.     Column Row Layer    Maximum-Head-Change  Column Row Layer    Maximum-Flux-Residual          L2-NORM 
          0                 1           2             4    7     1       0.2503283733E+00       4    7    1         0.1317702232E+02      0.2554198186E+02
          0                 2           2             4    7     1       0.5014107336E-01       4    7    1         0.2671280001E+01      0.3851439440E+01
          0                 3           2             4    7     1       0.5967310125E-01       4    7    1         0.3137764416E+01      0.6307898762E+01
          0                 4           2             4    7     1       0.2516452158E-01       4    7    1         0.1325136790E+01      0.2606523571E+01
          0                 5           2             4    7     1       0.1060505302E-01       4    7    1         0.5586270472E+00      0.1090078262E+01
          0                 6           2             4    7     1       0.4468736168E-02       4    7    1         0.2354040710E+00      0.4572141387E+00
          0                 7           2             4    7     1       0.1882906017E-02       4    7    1         0.9919304086E-01      0.1917910455E+00
          0                 8           2             4    7     1       0.7933068799E-03       4    7    1         0.4179455111E-01      0.8045966222E-01
          0                 9           2             4    7     1       0.3342101867E-03       4    7    1         0.1760865264E-01      0.3375704594E-01
          0                10           2             4    7     1       0.1407867641E-03       4    7    1         0.7418190030E-02      0.1416389745E-01
          0                11           1             4    7     1       0.5930153684E-04       4    7    1         0.3124877942E-02      0.5943326642E-02

    ------------------------------------------------
       NWT REQUIRED           11 OUTER ITERATIONS 
       AND A TOTAL OF         21 INNER ITERATIONS.
    ------------------------------------------------

 NO OUTPUT CONTROL FOR STRESS PERIOD   19   TIME STEP    9
 
 SOLVING FOR HEAD 
                                                   Max.-Head-Change                         Max.-Flux-Residual
  Residual-Control   Outer-Iter.   Inner-Iter.     Column Row Layer    Maximum-Head-Change  Column Row Layer    Maximum-Flux-Residual          L2-NORM 
          0                 1           2             4    7     1       0.2439552525E+00       4    7    1         0.1284176424E+02      0.2488896187E+02
          0                 2           2             4    7     1       0.4758109288E-01       4    7    1         0.2529770655E+01      0.3761209242E+01
          0                 3           2             4    7     1       0.5866316807E-01       4    7    1         0.3081360196E+01      0.6325680545E+01
          0                 4           2             4    7     1       0.2480032086E-01       4    7    1         0.1303039678E+01      0.2653423935E+01
          0                 5           2             4    7     1       0.1048098997E-01       4    7    1         0.5508341287E+00      0.1113114204E+01
          0                 6           2             4    7     1       0.4428001824E-02       4    7    1         0.2327759977E+00      0.4669811406E+00
          0                 7           2             4    7     1       0.1870168136E-02       4    7    1         0.9833708565E-01      0.1959215487E+00
          0                 8           2             4    7     1       0.7896369009E-03       4    7    1         0.4153030226E-01      0.8220275070E-01
          0                 9           2             4    7     1       0.3333146056E-03       4    7    1         0.1753428195E-01      0.3449132652E-01
          0                10           2             4    7     1       0.1406589163E-03       4    7    1         0.7401030075E-02      0.1447275250E-01
          0                11           1             4    7     1       0.5934331314E-04       4    7    1         0.3123082616E-02      0.6073073057E-02

    ------------------------------------------------
       NWT REQUIRED           11 OUTER ITERATIONS 
       AND A TOTAL OF         21 INNER ITERATIONS.
    ------------------------------------------------

 NO OUTPUT CONTROL FOR STRESS PERIOD   19   TIME STEP   10
 
 SOLVING FOR HEAD 
                                                   Max.-Head-Change                         Max.-Flux-Residual
  Residual-Control   Outer-Iter.   Inner-Iter.     Column Row Layer    Maximum-Head-Change  Column Row Layer    Maximum-Flux-Residual          L2-NORM 
          0                 1           2             4    7     1       0.2380189756E+00       4    7    1         0.1253064886E+02      0.2426389952E+02
          0                 2           2             4    7     1       0.4500120775E-01       4    7    1         0.2397844453E+01      0.3409794569E+01
          0                 3           2             4    7     1       0.5750891849E-01       4    7    1         0.3023651342E+01      0.6115076454E+01
          0                 4           2             4    7     1       0.2422734645E-01       4    7    1         0.1277099511E+01      0.2471444745E+01
          0                 5           2             4    7     1       0.1017871629E-01       4    7    1         0.5376928040E+00      0.1004272269E+01
          0                 6           2             4    7     1       0.4266767435E-02       4    7    1         0.2257887932E+00      0.4098579570E+00
          0                 7           2             4    7     1       0.1785218042E-02       4    7    1         0.9460776983E-01      0.1678415426E+00
          0                 8           2             4    7     1       0.7457732703E-03       4    7    1         0.3957019378E-01      0.6891662270E-01
          0                 9           2             4    7     1       0.3111417006E-03       4    7    1         0.1652562684E-01      0.2835599755E-01
          0                10           1             4    7     1       0.1296697251E-03       4    7    1         0.6892937394E-02      0.1168572373E-01
          0                11           1             4    7     1       0.5399147943E-04       4    7    1         0.2872082485E-02      0.4821644654E-02

    ------------------------------------------------
       NWT REQUIRED           11 OUTER ITERATIONS 
       AND A TOTAL OF         20 INNER ITERATIONS.
    ------------------------------------------------

 NO OUTPUT CONTROL FOR STRESS PERIOD   19   TIME STEP   11
 
 SOLVING FOR HEAD 
                                                   Max.-Head-Change                         Max.-Flux-Residual
  Residual-Control   Outer-Iter.   Inner-Iter.     Column Row Layer    Maximum-Head-Change  Column Row Layer    Maximum-Flux-Residual          L2-NORM 
          0                 1           2             4    7     1       0.2318918387E+00       4    7    1         0.1220778426E+02      0.2368251481E+02
          0                 2           2             4    7     1       0.4076429447E-01       4    7    1         0.2181432739E+01      0.2884938763E+01
          0                 3           2             4    7     1       0.5380014070E-01       4    7    1         0.2827016657E+01      0.5833456041E+01
          0                 4           2             4    7     1       0.2021012838E-01       4    7    1         0.1060395101E+01      0.2296006389E+01
          0                 5           2             5    7     1       0.8137313945E-02       5    7    1         0.4316161657E+00      0.9088943945E+00
          0                 6           2             5    7     1       0.3393929379E-02       5    7    1         0.1803235341E+00      0.3616824852E+00
          0                 7           2             5    7     1       0.1412888012E-02       5    7    1         0.7517935956E-01      0.1446018405E+00
          0                 8           2             5    7     1       0.5872126195E-03       5    7    1         0.3128597158E-01      0.5805035636E-01
          0                 9           2             5    7     1       0.2436974193E-03       5    7    1         0.1299875688E-01      0.2338715395E-01
          0                10           1             5    7     1       0.1010062331E-03       5    7    1         0.5393091245E-02      0.9450661107E-02
          0                11           1             5    7     1       0.4181664434E-04       5    7    1         0.2234745377E-02      0.3828693960E-02

    ------------------------------------------------
       NWT REQUIRED           11 OUTER ITERATIONS 
       AND A TOTAL OF         20 INNER ITERATIONS.
    ------------------------------------------------

 NO OUTPUT CONTROL FOR STRESS PERIOD   19   TIME STEP   12
 
 SOLVING FOR HEAD 
                                                   Max.-Head-Change                         Max.-Flux-Residual
  Residual-Control   Outer-Iter.   Inner-Iter.     Column Row Layer    Maximum-Head-Change  Column Row Layer    Maximum-Flux-Residual          L2-NORM 
          0                 1           2             4    7     1       0.2262706349E+00       4    7    1         0.1191174367E+02      0.2314640544E+02
          0                 2           2             4    7     1       0.2960843489E-01       4    7    1         0.1571395827E+01      0.2573945206E+01
          0                 3           2             4    7     1       0.4983911913E-01       4    6    1         0.2626641678E+01      0.5759109644E+01
          0                 4           2             4    6     1       0.2063224686E-01       4    6    1         0.1096566115E+01      0.2349276359E+01
          0                 5           2             4    6     1       0.8588437773E-02       4    6    1         0.4569898065E+00      0.9609344212E+00
          0                 6           2             4    6     1       0.3570568721E-02       4    6    1         0.1901748439E+00      0.3938819569E+00
          0                 7           2             4    6     1       0.1482873764E-02       4    6    1         0.7904503746E-01      0.1617087260E+00
          0                 8           2             4    6     1       0.6153013644E-03       4    6    1         0.3282131986E-01      0.6647055780E-01
          0                 9           2             4    6     1       0.2551231332E-03       4    6    1         0.1361657944E-01      0.2734798779E-01
          0                10           1             4    6     1       0.1057163243E-03       4    6    1         0.5645074942E-02      0.1125962234E-01
          0                11           1             4    6     1       0.4378304488E-04       4    6    1         0.2338890788E-02      0.4638211645E-02

    ------------------------------------------------
       NWT REQUIRED           11 OUTER ITERATIONS 
       AND A TOTAL OF         20 INNER ITERATIONS.
    ------------------------------------------------

 NO OUTPUT CONTROL FOR STRESS PERIOD   19   TIME STEP   13
 
 SOLVING FOR HEAD 
                                                   Max.-Head-Change                         Max.-Flux-Residual
  Residual-Control   Outer-Iter.   Inner-Iter.     Column Row Layer    Maximum-Head-Change  Column Row Layer    Maximum-Flux-Residual          L2-NORM 
          0                 1           2             4    7     1       0.2218227868E+00       4    7    1         0.1168117230E+02      0.2262922593E+02
          0                 2           2             4    7     1       0.3781854071E-01       4    7    1         0.2019562280E+01      0.2872388871E+01
          0                 3           2             4    7     1       0.5448784597E-01       4    7    1         0.2864211523E+01      0.5839179388E+01
          0                 4           2             4    7     1       0.2301178881E-01       4    7    1         0.1210059531E+01      0.2438485790E+01
          0                 5           2             4    7     1       0.9714642275E-02       4    7    1         0.5110076432E+00      0.1018575074E+01
          0                 6           2             4    7     1       0.4099503995E-02       4    7    1         0.2157099219E+00      0.4255621367E+00
          0                 7           2             4    7     1       0.1729301732E-02       4    7    1         0.9102109725E-01      0.1778343887E+00
          0                 8           2             4    7     1       0.7292089491E-03       4    7    1         0.3839283747E-01      0.7432619435E-01
          0                 9           2             4    7     1       0.3073842454E-03       4    7    1         0.1618830443E-01      0.3106939943E-01
          0                10           1             4    7     1       0.1295287299E-03       4    7    1         0.6823420940E-02      0.1298916238E-01
          0                11           1             4    7     1       0.5456470355E-04       4    7    1         0.2875140550E-02      0.5431004885E-02

    ------------------------------------------------
       NWT REQUIRED           11 OUTER ITERATIONS 
       AND A TOTAL OF         20 INNER ITERATIONS.
    ------------------------------------------------

 NO OUTPUT CONTROL FOR STRESS PERIOD   19   TIME STEP   14
 
 SOLVING FOR HEAD 
                                                   Max.-Head-Change                         Max.-Flux-Residual
  Residual-Control   Outer-Iter.   Inner-Iter.     Column Row Layer    Maximum-Head-Change  Column Row Layer    Maximum-Flux-Residual          L2-NORM 
          0                 1           2             4    7     1       0.2159592668E+00       4    7    1         0.1137866247E+02      0.2211249352E+02
          0                 2           2             4    7     1       0.3566461284E-01       4    7    1         0.1907155683E+01      0.2682299694E+01
          0                 3           2             4    7     1       0.5357130810E-01       4    7    1         0.2816299763E+01      0.5738342308E+01
          0                 4           2             4    7     1       0.2262206972E-01       4    7    1         0.1189677645E+01      0.2396190416E+01
          0                 5           2             4    7     1       0.9549064869E-02       4    7    1         0.5023423142E+00      0.1000827769E+01
          0                 6           2             4    7     1       0.4029208248E-02       4    7    1         0.2120289022E+00      0.4181154420E+00
          0                 7           2             4    7     1       0.1699477966E-02       4    7    1         0.8945853892E-01      0.1747096446E+00
          0                 8           2             4    7     1       0.7165637672E-03       4    7    1         0.3772998861E-01      0.7301494679E-01
          0                 9           2             4    7     1       0.3020258097E-03       4    7    1         0.1590729147E-01      0.3051913028E-01
          0                10           1             4    7     1       0.1272592830E-03       4    7    1         0.6704353676E-02      0.1275822952E-01
          0                11           1             4    7     1       0.5360400302E-04       4    7    1         0.2824717274E-02      0.5334084441E-02

    ------------------------------------------------
       NWT REQUIRED           11 OUTER ITERATIONS 
       AND A TOTAL OF         20 INNER ITERATIONS.
    ------------------------------------------------

 NO OUTPUT CONTROL FOR STRESS PERIOD   19   TIME STEP   15
 
 SOLVING FOR HEAD 
                                                   Max.-Head-Change                         Max.-Flux-Residual
  Residual-Control   Outer-Iter.   Inner-Iter.     Column Row Layer    Maximum-Head-Change  Column Row Layer    Maximum-Flux-Residual          L2-NORM 
          0                 1           2             4    7     1       0.2103227037E+00       4    7    1         0.1108172840E+02      0.2162172429E+02
          0                 2           2             4    7     1       0.3317807313E-01       4    7    1         0.1782045795E+01      0.2406305719E+01
          0                 3           2             4    7     1       0.5246732370E-01       4    7    1         0.2760521405E+01      0.5584737545E+01
          0                 4           2             4    7     1       0.2210716438E-01       4    7    1         0.1164934415E+01      0.2316821422E+01
          0                 5           2             4    7     1       0.9299890623E-02       4    7    1         0.4906748463E+00      0.9543184929E+00
          0                 6           2             4    7     1       0.3906944100E-02       4    7    1         0.2063521158E+00      0.3956181136E+00
          0                 7           2             4    7     1       0.1639493351E-02       4    7    1         0.8666825312E-01      0.1648567491E+00
          0                 8           2             4    7     1       0.6873506539E-03       4    7    1         0.3636155004E-01      0.6898421130E-01
          0                 9           2             4    7     1       0.2879478118E-03       4    7    1         0.1524180225E-01      0.2896401664E-01
          0                10           1             4    7     1       0.1205524662E-03       4    7    1         0.6384252860E-02      0.1219454694E-01
          0                11           1             4    7     1       0.5044484956E-04       5    8    1         0.2798121331E-02      0.5145954538E-02

    ------------------------------------------------
       NWT REQUIRED           11 OUTER ITERATIONS 
       AND A TOTAL OF         20 INNER ITERATIONS.
    ------------------------------------------------

 NO OUTPUT CONTROL FOR STRESS PERIOD   19   TIME STEP   16
 
 SOLVING FOR HEAD 
                                                   Max.-Head-Change                         Max.-Flux-Residual
  Residual-Control   Outer-Iter.   Inner-Iter.     Column Row Layer    Maximum-Head-Change  Column Row Layer    Maximum-Flux-Residual          L2-NORM 
          0                 1           2             4    7     1       0.2045910443E+00       4    7    1         0.1077806741E+02      0.2116341807E+02
          0                 2           2             4    7     1       0.3076724460E-01       4    7    1         0.1654997176E+01      0.2243652463E+01
          0                 3           2             4    7     1       0.5145272705E-01       4    7    1         0.2707015952E+01      0.5465908146E+01
          0                 4           2             4    7     1       0.2167933454E-01       4    7    1         0.1142419084E+01      0.2266970249E+01
          0                 5           2             4    7     1       0.9119385237E-02       4    7    1         0.4811761532E+00      0.9443141002E+00
          0                 6           2             4    7     1       0.3830902273E-02       4    7    1         0.2023444404E+00      0.3947525769E+00
          0                 7           2             4    7     1       0.1607553856E-02       4    7    1         0.8498054573E-01      0.1654960166E+00
          0                 8           2             4    7     1       0.6739873058E-03       4    7    1         0.3565310807E-01      0.6954998204E-01
          0                 9           2             4    7     1       0.2823814891E-03       4    7    1         0.1494562437E-01      0.2928865025E-01
          0                10           1             4    7     1       0.1182449589E-03       5    8    1         0.6453560964E-02      0.1235606758E-01
          0                11           1             4    7     1       0.4949302447E-04       5    8    1         0.2835281943E-02      0.5221007504E-02

    ------------------------------------------------
       NWT REQUIRED           11 OUTER ITERATIONS 
       AND A TOTAL OF         20 INNER ITERATIONS.
    ------------------------------------------------

 NO OUTPUT CONTROL FOR STRESS PERIOD   19   TIME STEP   17
 
 SOLVING FOR HEAD 
                                                   Max.-Head-Change                         Max.-Flux-Residual
  Residual-Control   Outer-Iter.   Inner-Iter.     Column Row Layer    Maximum-Head-Change  Column Row Layer    Maximum-Flux-Residual          L2-NORM 
          0                 1           2             4    7     1       0.1990438170E+00       4    7    1         0.1048428493E+02      0.2073360408E+02
          0                 2           2             4    7     1       0.2850723944E-01       4    7    1         0.1532025783E+01      0.2133451564E+01
          0                 3           2             4    7     1       0.5048667864E-01       4    7    1         0.2655176921E+01      0.5419143363E+01
          0                 4           2             4    7     1       0.2130887801E-01       4    7    1         0.1121070442E+01      0.2283032711E+01
          0                 5           2             4    7     1       0.8982127407E-02       4    7    1         0.4731365578E+00      0.9497342546E+00
          0                 6           2             4    7     1       0.3750483351E-02       4    7    1         0.1977843326E+00      0.3937680248E+00
          0                 7           2             4    7     1       0.1404541814E-02       5    8    1         0.7532461867E-01      0.1598955737E+00
          0                 8           2             5    8     1       0.5884517232E-03       5    8    1         0.3347157609E-01      0.6549393714E-01
          0                 9           2             5    8     1       0.2605858016E-03       5    8    1         0.1484421356E-01      0.2703736548E-01
          0                10           1             5    8     1       0.1151973992E-03       5    8    1         0.6571156797E-02      0.1123931766E-01
          0                11           1             5    8     1       0.5084438519E-04       5    8    1         0.2903950130E-02      0.4700551212E-02

    ------------------------------------------------
       NWT REQUIRED           11 OUTER ITERATIONS 
       AND A TOTAL OF         20 INNER ITERATIONS.
    ------------------------------------------------

 NO OUTPUT CONTROL FOR STRESS PERIOD   19   TIME STEP   18
 
 SOLVING FOR HEAD 
                                                   Max.-Head-Change                         Max.-Flux-Residual
  Residual-Control   Outer-Iter.   Inner-Iter.     Column Row Layer    Maximum-Head-Change  Column Row Layer    Maximum-Flux-Residual          L2-NORM 
          0                 1           2             4    7     1       0.1937175213E+00       4    7    1         0.1020771018E+02      0.2002750324E+02
          0                 2           2             5    8     1      -0.1890544329E-01       5    8    1        -0.1078688137E+01      0.1877467300E+01
          0                 3           2             4    7     1       0.4511548611E-01       4    7    1         0.2365894901E+01      0.5074408052E+01
          0                 4           2             5    7     1       0.1707867972E-01       5    7    1         0.9072852299E+00      0.2048912650E+01
          0                 5           2             5    7     1       0.7090361990E-02       5    7    1         0.3768899948E+00      0.8338237267E+00
          0                 6           2             5    7     1       0.2941752638E-02       5    6    1         0.1657931588E+00      0.3417261892E+00
          0                 7           2             5    6     1       0.1281784080E-02       5    6    1         0.7329773012E-01      0.1409110190E+00
          0                 8           2             5    6     1       0.5637491104E-03       5    6    1         0.3230539892E-01      0.5841362960E-01
          0                 9           2             5    6     1       0.2473789061E-03       5    6    1         0.1420129657E-01      0.2432547123E-01
          0                10           2             5    6     1       0.1083398800E-03       5    6    1         0.6228987273E-02      0.1016959159E-01
          0                11           1             5    6     1       0.4736752893E-04       5    6    1         0.2726974162E-02      0.4265800252E-02

    ------------------------------------------------
       NWT REQUIRED           11 OUTER ITERATIONS 
       AND A TOTAL OF         21 INNER ITERATIONS.
    ------------------------------------------------

 NO OUTPUT CONTROL FOR STRESS PERIOD   19   TIME STEP   19
 
 SOLVING FOR HEAD 
                                                   Max.-Head-Change                         Max.-Flux-Residual
  Residual-Control   Outer-Iter.   Inner-Iter.     Column Row Layer    Maximum-Head-Change  Column Row Layer    Maximum-Flux-Residual          L2-NORM 
          0                 1           2             4    7     1       0.1894330086E+00       4    7    1         0.9985028490E+01      0.1914627927E+02
          0                 2           2             5    8     1      -0.3754223745E-01       5    8    1        -0.2133103114E+01      0.2544153086E+01
          0                 3           2             4    7     1       0.4446887880E-01       4    7    1         0.2333077435E+01      0.4910417692E+01
          0                 4           2             4    7     1       0.1854812887E-01       4    7    1         0.9759664286E+00      0.1990241700E+01
          0                 5           2             4    7     1       0.7805158966E-02       4    7    1         0.4118236975E+00      0.8160881265E+00
          0                 6           2             4    7     1       0.3274969625E-02       4    7    1         0.1731847280E+00      0.3371399969E+00
          0                 7           2             4    7     1       0.1370909273E-02       5    6    1         0.7585262523E-01      0.1401343874E+00
          0                 8           2             5    6     1       0.5824040470E-03       5    6    1         0.3339512691E-01      0.5853997667E-01
          0                 9           2             5    6     1       0.2554331832E-03       5    6    1         0.1466921985E-01      0.2455463071E-01
          0                10           2             5    6     1       0.1118399211E-03       5    6    1         0.6431265526E-02      0.1033398812E-01
          0                11           1             5    6     1       0.4889762999E-04       5    6    1         0.2814979583E-02      0.4361196246E-02

    ------------------------------------------------
       NWT REQUIRED           11 OUTER ITERATIONS 
       AND A TOTAL OF         21 INNER ITERATIONS.
    ------------------------------------------------

 NO OUTPUT CONTROL FOR STRESS PERIOD   19   TIME STEP   20
 
 SOLVING FOR HEAD 
                                                   Max.-Head-Change                         Max.-Flux-Residual
  Residual-Control   Outer-Iter.   Inner-Iter.     Column Row Layer    Maximum-Head-Change  Column Row Layer    Maximum-Flux-Residual          L2-NORM 
          0                 1           2             4    7     1       0.1847733580E+00       4    7    1         0.9741238375E+01      0.1873673848E+02
          0                 2           2             5    8     1      -0.3580262675E-01       5    8    1        -0.2026544214E+01      0.2650814437E+01
          0                 3           2             4    7     1       0.4786514034E-01       4    7    1         0.2519500262E+01      0.4974282504E+01
          0                 4           2             4    7     1       0.2014420630E-01       4    7    1         0.1060979874E+01      0.2093003313E+01
          0                 5           2             4    7     1       0.8472833175E-02       4    7    1         0.4464832867E+00      0.8820322857E+00
          0                 6           2             4    7     1       0.3561927354E-02       4    7    1         0.1877812735E+00      0.3722917165E+00
          0                 7           2             4    7     1       0.1496758696E-02       4    7    1         0.7893734750E-01      0.1573766004E+00
          0                 8           2             4    7     1       0.6287219508E-03       5    6    1         0.3361230037E-01      0.6662463337E-01
          0                 9           2             4    7     1       0.2640176690E-03       5    6    1         0.1486914107E-01      0.2824523621E-01
          0                10           2             5    6     1       0.1148943072E-03       5    6    1         0.6566844820E-02      0.1199079372E-01
          0                11           1             5    6     1       0.5061172482E-04       5    6    1         0.2895874685E-02      0.5097046055E-02

    ------------------------------------------------
       NWT REQUIRED           11 OUTER ITERATIONS 
       AND A TOTAL OF         21 INNER ITERATIONS.
    ------------------------------------------------

 NO OUTPUT CONTROL FOR STRESS PERIOD   19   TIME STEP   21
 
 SOLVING FOR HEAD 
                                                   Max.-Head-Change                         Max.-Flux-Residual
  Residual-Control   Outer-Iter.   Inner-Iter.     Column Row Layer    Maximum-Head-Change  Column Row Layer    Maximum-Flux-Residual          L2-NORM 
          0                 1           2             4    7     1       0.1778062008E+00       4    7    1         0.9460727286E+01      0.1649195596E+02
          0                 2           2             5    8     1      -0.3572289770E-01       5    8    1        -0.1980572426E+01      0.3257120613E+01
          0                 3           2             4    7     1       0.4601969522E-01       4    7    1         0.2434209963E+01      0.4528069245E+01
          0                 4           2             4    7     1       0.1923380985E-01       4    7    1         0.1017714314E+01      0.1901434035E+01
          0                 5           2             4    7     1       0.8036446569E-02       4    7    1         0.4253425219E+00      0.7997342998E+00
          0                 6           2             4    7     1       0.3357040161E-02       4    7    1         0.1777162016E+00      0.3369117612E+00
          0                 7           2             4    7     1       0.1402049386E-02       4    7    1         0.7423547541E-01      0.1421550955E+00
          0                 8           2             4    7     1       0.5854686706E-03       5    6    1         0.3205365631E-01      0.6007067709E-01
          0                 9           2             5    6     1       0.2468117099E-03       5    6    1         0.1412089951E-01      0.2542098387E-01
          0                10           2             5    6     1       0.1084488233E-03       5    6    1         0.6211666141E-02      0.1077275606E-01
          0                11           1             5    6     1       0.4759406266E-04       5    6    1         0.2728828685E-02      0.4571302403E-02

    ------------------------------------------------
       NWT REQUIRED           11 OUTER ITERATIONS 
       AND A TOTAL OF         21 INNER ITERATIONS.
    ------------------------------------------------

 NO OUTPUT CONTROL FOR STRESS PERIOD   19   TIME STEP   22
 
 SOLVING FOR HEAD 
                                                   Max.-Head-Change                         Max.-Flux-Residual
  Residual-Control   Outer-Iter.   Inner-Iter.     Column Row Layer    Maximum-Head-Change  Column Row Layer    Maximum-Flux-Residual          L2-NORM 
          0                 1           2             4    6     1       0.1452567931E+00       4    6    1         0.7703533194E+01      0.1422805619E+02
          0                 2           2             5    8     1      -0.3577652876E-01       5    8    1        -0.1971775541E+01      0.3573113054E+01
          0                 3           2             4    6     1       0.4033883092E-01       4    6    1         0.2148721093E+01      0.4019627834E+01
          0                 4           2             4    6     1       0.1669410460E-01       4    6    1         0.8897893234E+00      0.1642831748E+01
          0                 5           2             4    6     1       0.6905580847E-02       4    6    1         0.3682208159E+00      0.6715530277E+00
          0                 6           2             4    6     1       0.2855247164E-02       4    6    1         0.1523098553E+00      0.2745793256E+00
          0                 7           2             4    6     1       0.1180069429E-02       4    6    1         0.6297302286E-01      0.1122887399E+00
          0                 8           2             4    6     1       0.4875334655E-03       4    6    1         0.2602571221E-01      0.4592811780E-01
          0                 9           2             4    6     1       0.2013473160E-03       4    6    1         0.1075188961E-01      0.1878832938E-01
          0                10           1             4    6     1       0.8312712471E-04       4    6    1         0.4440302034E-02      0.7687031862E-02

    ------------------------------------------------
       NWT REQUIRED           10 OUTER ITERATIONS 
       AND A TOTAL OF         19 INNER ITERATIONS.
    ------------------------------------------------

 NO OUTPUT CONTROL FOR STRESS PERIOD   19   TIME STEP   23
 
 SOLVING FOR HEAD 
                                                   Max.-Head-Change                         Max.-Flux-Residual
  Residual-Control   Outer-Iter.   Inner-Iter.     Column Row Layer    Maximum-Head-Change  Column Row Layer    Maximum-Flux-Residual          L2-NORM 
          0                 1           2             4    6     1       0.1378623684E+00       4    6    1         0.7380454322E+01      0.1218805685E+02
          0                 2           2             5    6     1      -0.3928518333E-01       5    6    1        -0.2202782479E+01      0.4148490631E+01
          0                 3           2             4    6     1       0.3862382069E-01       4    6    1         0.2066019309E+01      0.3667766697E+01
          0                 4           2             4    6     1       0.1591617691E-01       4    6    1         0.8516016590E+00      0.1499326197E+01
          0                 5           2             4    6     1       0.6558058113E-02       4    6    1         0.3509266369E+00      0.6129811739E+00
          0                 6           2             4    6     1       0.2701839684E-02       4    6    1         0.1445936827E+00      0.2506555695E+00
          0                 7           2             4    6     1       0.1112994540E-02       4    6    1         0.5957022647E-01      0.1025109941E+00
          0                 8           2             4    6     1       0.4584341202E-03       4    6    1         0.2453908720E-01      0.4192984492E-01
          0                 9           2             4    6     1       0.1888045832E-03       4    6    1         0.1010736760E-01      0.1715266939E-01
          0                10           1             4    6     1       0.7775019360E-04       4    6    1         0.4162646286E-02      0.7017657147E-02

    ------------------------------------------------
       NWT REQUIRED           10 OUTER ITERATIONS 
       AND A TOTAL OF         19 INNER ITERATIONS.
    ------------------------------------------------

 NO OUTPUT CONTROL FOR STRESS PERIOD   19   TIME STEP   24
 
 SOLVING FOR HEAD 
                                                   Max.-Head-Change                         Max.-Flux-Residual
  Residual-Control   Outer-Iter.   Inner-Iter.     Column Row Layer    Maximum-Head-Change  Column Row Layer    Maximum-Flux-Residual          L2-NORM 
          0                 1           2             4    6     1       0.9002893876E-01       4    6    1         0.4765473587E+01      0.1079422076E+02
          0                 2           2             5    6     1      -0.3863822177E-01       5    6    1        -0.2145874468E+01      0.4273273662E+01
          0                 3           2             4    6     1       0.2819654752E-01       4    6    1         0.1584345033E+01      0.3414191736E+01
          0                 4           2             4    7     1       0.1151269605E-01       4    6    1         0.6391110718E+00      0.1383289280E+01
          0                 5           2             4    7     1       0.4711075517E-02       4    7    1         0.2613004480E+00      0.5604778764E+00
          0                 6           2             4    7     1       0.1927000620E-02       4    7    1         0.1069194369E+00      0.2271184324E+00
          0                 7           2             4    7     1       0.7879003016E-03       4    7    1         0.4373130520E-01      0.9204015957E-01
          0                 8           2             4    7     1       0.3220302470E-03       4    7    1         0.1787955125E-01      0.3730195857E-01
          0                 9           2             4    7     1       0.1315727462E-03       4    7    1         0.7307309512E-02      0.1511862184E-01
          0                10           1             4    7     1       0.5373862317E-04       4    7    1         0.2985402984E-02      0.6127967555E-02

    ------------------------------------------------
       NWT REQUIRED           10 OUTER ITERATIONS 
       AND A TOTAL OF         19 INNER ITERATIONS.
    ------------------------------------------------

 NO OUTPUT CONTROL FOR STRESS PERIOD   19   TIME STEP   25
 
 SOLVING FOR HEAD 
                                                   Max.-Head-Change                         Max.-Flux-Residual
  Residual-Control   Outer-Iter.   Inner-Iter.     Column Row Layer    Maximum-Head-Change  Column Row Layer    Maximum-Flux-Residual          L2-NORM 
          0                 1           2             4    7     1       0.8484238871E-01       4    7    1         0.4490516914E+01      0.9963443949E+01
          0                 2           2             5    6     1      -0.3840219730E-01       5    6    1        -0.2120564095E+01      0.4533134315E+01
          0                 3           2             4    7     1       0.2764073567E-01       4    7    1         0.1534825785E+01      0.3281270578E+01
          0                 4           2             4    7     1       0.1129322817E-01       4    7    1         0.6272618764E+00      0.1329371818E+01
          0                 5           2             4    7     1       0.4612954362E-02       4    7    1         0.2562736646E+00      0.5386122464E+00
          0                 6           2             4    7     1       0.1883763769E-02       4    7    1         0.1046755383E+00      0.2182507785E+00
          0                 7           2             4    7     1       0.7690642393E-03       4    7    1         0.4274374074E-01      0.8844372426E-01
          0                 8           2             4    7     1       0.3138993883E-03       4    7    1         0.1744974026E-01      0.3584328944E-01
          0                 9           2             4    7     1       0.1280892967E-03       4    7    1         0.7121923568E-02      0.1452697185E-01
          0                10           1             4    7     1       0.5225557404E-04       4    7    1         0.2906032169E-02      0.5887974829E-02

    ------------------------------------------------
       NWT REQUIRED           10 OUTER ITERATIONS 
       AND A TOTAL OF         19 INNER ITERATIONS.
    ------------------------------------------------

 NO OUTPUT CONTROL FOR STRESS PERIOD   19   TIME STEP   26
 
 SOLVING FOR HEAD 
                                                   Max.-Head-Change                         Max.-Flux-Residual
  Residual-Control   Outer-Iter.   Inner-Iter.     Column Row Layer    Maximum-Head-Change  Column Row Layer    Maximum-Flux-Residual          L2-NORM 
          0                 1           2             4    7     1       0.8224636150E-01       4    7    1         0.4348969018E+01      0.9814167602E+01
          0                 2           2             5    6     1      -0.3809317897E-01       5    6    1        -0.2103031435E+01      0.4564169943E+01
          0                 3           2             4    7     1       0.2730883285E-01       4    7    1         0.1515766019E+01      0.3267134724E+01
          0                 4           2             4    7     1       0.1116236619E-01       4    7    1         0.6197555392E+00      0.1322480994E+01
          0                 5           2             4    7     1       0.4561288744E-02       4    7    1         0.2533137929E+00      0.5353734948E+00
          0                 6           2             4    7     1       0.1863334360E-02       4    7    1         0.1035068270E+00      0.2167659635E+00
          0                 7           2             4    7     1       0.7609723168E-03       4    7    1         0.4228155665E-01      0.8777527795E-01
          0                 8           2             4    7     1       0.3106882493E-03       4    7    1         0.1726664749E-01      0.3554647948E-01
          0                 9           2             4    7     1       0.1268124439E-03       4    7    1         0.7049255215E-02      0.1439658833E-01
          0                10           1             4    7     1       0.5174676791E-04       4    7    1         0.2877132046E-02      0.5831189130E-02

    ------------------------------------------------
       NWT REQUIRED           10 OUTER ITERATIONS 
       AND A TOTAL OF         19 INNER ITERATIONS.
    ------------------------------------------------

 NO OUTPUT CONTROL FOR STRESS PERIOD   19   TIME STEP   27
 
 SOLVING FOR HEAD 
                                                   Max.-Head-Change                         Max.-Flux-Residual
  Residual-Control   Outer-Iter.   Inner-Iter.     Column Row Layer    Maximum-Head-Change  Column Row Layer    Maximum-Flux-Residual          L2-NORM 
          0                 1           2             4    7     1       0.7985078177E-01       4    7    1         0.4218611603E+01      0.9654804981E+01
          0                 2           2             5    8     1      -0.3802349901E-01       5    8    1        -0.2098469836E+01      0.4610040647E+01
          0                 3           2             4    7     1       0.2700075119E-01       4    7    1         0.1498119658E+01      0.3249629090E+01
          0                 4           2             4    7     1       0.1104051841E-01       4    7    1         0.6127860810E+00      0.1313959785E+01
          0                 5           2             4    7     1       0.4513015539E-02       4    7    1         0.2505569956E+00      0.5313837444E+00
          0                 6           2             4    7     1       0.1844172728E-02       4    7    1         0.1024144971E+00      0.2149459896E+00
          0                 7           2             4    7     1       0.7533499910E-03       4    7    1         0.4184789624E-01      0.8696050715E-01
          0                 8           2             4    7     1       0.3076491122E-03       4    7    1         0.1709411039E-01      0.3518679934E-01
          0                 9           2             4    7     1       0.1255976935E-03       4    7    1         0.6980448631E-02      0.1423951399E-01
          0                10           1             4    7     1       0.5125996902E-04       4    7    1         0.2849624166E-02      0.5763176310E-02

    ------------------------------------------------
       NWT REQUIRED           10 OUTER ITERATIONS 
       AND A TOTAL OF         19 INNER ITERATIONS.
    ------------------------------------------------

 NO OUTPUT CONTROL FOR STRESS PERIOD   19   TIME STEP   28
 
 SOLVING FOR HEAD 
                                                   Max.-Head-Change                         Max.-Flux-Residual
  Residual-Control   Outer-Iter.   Inner-Iter.     Column Row Layer    Maximum-Head-Change  Column Row Layer    Maximum-Flux-Residual          L2-NORM 
          0                 1           2             4    7     1       0.7763156584E-01       4    7    1         0.4098102655E+01      0.9506016273E+01
          0                 2           2             5    8     1      -0.3910587531E-01       5    8    1        -0.2159694341E+01      0.4646461675E+01
          0                 3           2             4    7     1       0.2477967614E-01       4    7    1         0.1374927671E+01      0.2973117113E+01
          0                 4           2             4    7     1       0.1013179924E-01       4    7    1         0.5623735257E+00      0.1201155926E+01
          0                 5           2             4    7     1       0.4141331212E-02       4    7    1         0.2299332523E+00      0.4854026085E+00
          0                 6           2             4    7     1       0.1692179693E-02       4    7    1         0.9397933580E-01      0.1962128478E+00
          0                 7           2             4    7     1       0.6912080644E-03       4    7    1         0.3839864587E-01      0.7933176562E-01
          0                 8           2             4    7     1       0.2822473946E-03       4    7    1         0.1568395116E-01      0.3208125056E-01
          0                 9           1             4    7     1       0.1152161087E-03       4    7    1         0.6404041414E-02      0.1297567093E-01
          0                10           1             4    7     1       0.4701777297E-04       4    7    1         0.2614057796E-02      0.5248967938E-02

    ------------------------------------------------
       NWT REQUIRED           10 OUTER ITERATIONS 
       AND A TOTAL OF         18 INNER ITERATIONS.
    ------------------------------------------------

 NO OUTPUT CONTROL FOR STRESS PERIOD   19   TIME STEP   29
 
 SOLVING FOR HEAD 
                                                   Max.-Head-Change                         Max.-Flux-Residual
  Residual-Control   Outer-Iter.   Inner-Iter.     Column Row Layer    Maximum-Head-Change  Column Row Layer    Maximum-Flux-Residual          L2-NORM 
          0                 1           2             4    7     1       0.7556734340E-01       4    7    1         0.3987427133E+01      0.9335166813E+01
          0                 2           2             5    8     1      -0.3810027718E-01       5    8    1        -0.2105039294E+01      0.4440795175E+01
          0                 3           2             4    7     1       0.2090953309E-01       4    7    1         0.1160888070E+01      0.2467273251E+01
          0                 4           2             4    7     1       0.8543020574E-02       4    7    1         0.4745093168E+00      0.9952743085E+00
          0                 5           2             4    7     1       0.3489103887E-02       4    7    1         0.1938639995E+00      0.4015702099E+00
          0                 6           2             4    7     1       0.1424432154E-02       4    7    1         0.7917245756E-01      0.1620722685E+00
          0                 7           2             4    7     1       0.5813001042E-03       4    7    1         0.3232038181E-01      0.6542642812E-01
          0                 8           2             4    7     1       0.2371347968E-03       4    7    1         0.1318894594E-01      0.2641712839E-01
          0                 9           1             4    7     1       0.9670121606E-04       4    7    1         0.5379977008E-02      0.1066831641E-01

    ------------------------------------------------
       NWT REQUIRED            9 OUTER ITERATIONS 
       AND A TOTAL OF         17 INNER ITERATIONS.
    ------------------------------------------------

 NO OUTPUT CONTROL FOR STRESS PERIOD   19   TIME STEP   30



 STREAM LISTING     PERIOD     19   STEP       30

 LAYER ROW COL. STREAM  RCH.  FLOW INTO     FLOW TO   FLOW OUT OF   OVRLND.     DIRECT     STREAM       STREAM     STREAM     STREAM   STREAMBED  STREAMBED
                SEG.NO.  NO.  STRM. RCH.    AQUIFER    STRM. RCH.    RUNOFF     PRECIP       ET          HEAD       DEPTH      WIDTH   CONDCTNC.   GRADIENT

   1    1    1     1     1    2.0250E+01  2.2212E-01   2.0028E+01  0.000E+00  0.000E+00  0.000E+00  1.09415E+03  1.102E+00  1.203E+01  5.414E-02  1.367E+00
   1    2    2     1     2    2.0028E+01  3.4298E-01   1.9685E+01  0.000E+00  0.000E+00  0.000E+00  1.08916E+03  1.098E+00  1.196E+01  8.370E-02  1.366E+00
   1    3    3     1     3    1.9685E+01  2.9127E-01   1.9394E+01  0.000E+00  0.000E+00  0.000E+00  1.08351E+03  1.093E+00  1.186E+01  7.117E-02  1.364E+00
   1    3    4     1     4    1.9394E+01  2.6721E-01   1.9127E+01  0.000E+00  0.000E+00  0.000E+00  1.07850E+03  1.088E+00  1.178E+01  6.536E-02  1.363E+00
   1    4    5     2     1    1.7127E+01  3.0866E-01   1.6818E+01  0.000E+00  0.000E+00  0.000E+00  1.07289E+03  9.572E-01  1.200E+01  7.800E-02  1.319E+00
   1    5    6     2     2    1.6818E+01  2.3687E-01   1.6581E+01  0.000E+00  0.000E+00  0.000E+00  1.06746E+03  9.479E-01  1.200E+01  6.000E-02  1.316E+00
   1    6    6     2     3    1.6581E+01  2.3639E-01   1.6345E+01  0.000E+00  0.000E+00  0.000E+00  1.06273E+03  9.398E-01  1.200E+01  6.000E-02  1.313E+00
   1    7    6     2     4    1.6345E+01  2.3590E-01   1.6109E+01  0.000E+00  0.000E+00  0.000E+00  1.05801E+03  9.317E-01  1.200E+01  6.000E-02  1.311E+00
   1    8    6     2     5    1.6109E+01  2.3541E-01   1.5873E+01  0.000E+00  0.000E+00  0.000E+00  1.05328E+03  9.236E-01  1.200E+01  6.000E-02  1.308E+00
   1    3    5     3     1    2.0000E+00  2.8252E-01   1.7175E+00  0.000E+00  0.000E+00  0.000E+00  1.07555E+03  1.909E+00  9.636E+00  7.227E-02  1.955E+00
   1    3    6     3     2    1.7175E+00  2.4905E-01   1.4684E+00  0.000E+00  0.000E+00  0.000E+00  1.07264E+03  1.727E+00  8.909E+00  6.682E-02  1.864E+00
   1    3    7     3     3    1.4684E+00  1.9718E-01   1.2712E+00  0.000E+00  0.000E+00  0.000E+00  1.06987E+03  1.555E+00  8.218E+00  5.547E-02  1.777E+00
   1    4    8     3     4    1.2712E+00  2.2567E-01   1.0456E+00  0.000E+00  0.000E+00  0.000E+00  1.06682E+03  1.364E+00  7.455E+00  6.709E-02  1.682E+00
   1    5    8     3     5    1.0456E+00  1.5790E-01   8.8768E-01  0.000E+00  0.000E+00  0.000E+00  1.06362E+03  1.164E+00  6.655E+00  4.991E-02  1.582E+00
   1    6    8     3     6    8.8768E-01  5.5980E-02   8.3170E-01  0.000E+00  0.000E+00  0.000E+00  1.06158E+03  1.036E+00  6.145E+00  1.844E-02  1.518E+00
   1    5   10     4     1    1.0000E+01  9.0919E-02   9.9091E+00  0.000E+00  0.000E+00  0.000E+00  1.07836E+03  6.368E-01  1.000E+01  2.500E-02  1.212E+00
   1    5    9     4     2    9.9091E+00  1.8158E-01   9.7275E+00  0.000E+00  0.000E+00  0.000E+00  1.07154E+03  6.315E-01  1.000E+01  5.000E-02  1.211E+00
   1    6    8     4     3    9.7275E+00  1.2689E-01   9.6006E+00  0.000E+00  0.000E+00  0.000E+00  1.06381E+03  6.256E-01  1.000E+01  3.500E-02  1.209E+00
   1    6    8     5     1    1.0432E+01  2.2686E-01   1.0205E+01  0.000E+00  0.000E+00  0.000E+00  1.05868E+03  6.790E-01  1.542E+01  6.166E-02  1.226E+00
   1    7    7     5     2    1.0205E+01  2.7894E-01   9.9265E+00  0.000E+00  0.000E+00  0.000E+00  1.05417E+03  6.732E-01  1.519E+01  7.594E-02  1.224E+00
   1    8    7     5     3    9.9265E+00  1.9221E-01   9.7343E+00  0.000E+00  0.000E+00  0.000E+00  1.04992E+03  6.676E-01  1.497E+01  5.241E-02  1.223E+00
   1    8    6     5     4    9.7343E+00  1.3577E-01   9.5985E+00  0.000E+00  0.000E+00  0.000E+00  1.04691E+03  6.637E-01  1.482E+01  3.706E-02  1.221E+00
   1    9    6     6     1    9.5985E+00  2.2097E-01   9.3776E+00  0.000E+00  0.000E+00  0.000E+00  1.04341E+03  6.828E-01  1.200E+01  6.000E-02  1.228E+00
   1   10    7     6     2    9.3776E+00  2.2039E-01   9.1572E+00  0.000E+00  0.000E+00  0.000E+00  1.03885E+03  6.732E-01  1.200E+01  6.000E-02  1.224E+00
   1   11    7     6     3    9.1572E+00  2.1981E-01   8.9374E+00  0.000E+00  0.000E+00  0.000E+00  1.03430E+03  6.636E-01  1.200E+01  6.000E-02  1.221E+00
   1   12    7     6     4    8.9374E+00  2.1923E-01   8.7181E+00  0.000E+00  0.000E+00  0.000E+00  1.02974E+03  6.539E-01  1.200E+01  6.000E-02  1.218E+00
   1   13    7     6     5    8.7181E+00 -3.3192E-03   8.7214E+00  0.000E+00  0.000E+00  0.000E+00  1.02656E+03  6.490E-01  1.200E+01  2.400E-01 -4.610E-03
   1   14    9     7     1    1.5000E+02  1.3784E+00   1.4862E+02  0.000E+00  0.000E+00  0.000E+00  1.03987E+03  2.288E+00  5.529E+01  5.593E-01  8.215E-01
   1   13    8     7     2    1.4862E+02  1.9862E+00   1.4664E+02  0.000E+00  0.000E+00  0.000E+00  1.03478E+03  2.279E+00  5.525E+01  6.147E-01  1.077E+00
   1   13    7     7     3    1.4664E+02  1.7399E+00   1.4490E+02  0.000E+00  0.000E+00  0.000E+00  1.02969E+03  2.269E+00  5.521E+01  5.584E-01  1.039E+00
   1   13    6     8     1    1.5362E+02  1.0973E+00   1.5252E+02  0.000E+00  0.000E+00  0.000E+00  1.02471E+03  2.838E+00  4.116E+01  4.194E-01  8.722E-01
   1   13    5     8     2    1.5252E+02  3.5480E-01   1.5216E+02  0.000E+00  0.000E+00  0.000E+00  1.01846E+03  2.833E+00  4.108E+01  4.186E-01  2.825E-01
   1   13    4     8     3    1.5216E+02 -1.8012E+00   1.5397E+02  0.000E+00  0.000E+00  0.000E+00  1.01221E+03  2.838E+00  4.116E+01  4.194E+00 -1.432E-01
   1   13    3     8     4    1.5397E+02 -3.3364E+00   1.5730E+02  0.000E+00  0.000E+00  0.000E+00  1.00598E+03  2.856E+00  4.141E+01  4.220E+00 -2.635E-01
   1   13    2     8     5    1.5730E+02 -2.5149E+00   1.5982E+02  0.000E+00  0.000E+00  0.000E+00  9.99751E+02  2.876E+00  4.170E+01  4.250E+00 -1.973E-01
   1   13    1     8     6    1.5982E+02 -1.9733E+00   1.6179E+02  0.000E+00  0.000E+00  0.000E+00  9.94766E+02  2.891E+00  4.192E+01  2.563E+00 -2.566E-01
   1    8    6     9     1    1.5873E+01  0.0000E+00   1.5873E+01  0.000E+00  0.000E+00  0.000E+00  1.08174E+03  2.990E+00  4.000E+00  0.000E+00  1.997E+00
   1    8    5     9     2    1.5873E+01  0.0000E+00   1.5873E+01  0.000E+00  0.000E+00  0.000E+00  1.08124E+03  2.990E+00  4.000E+00  0.000E+00  1.997E+00





UNSATURATED ZONE PACKAGE VOLUMETRIC BUDGET FOR  TIME STEP    30 STRESS PERIOD   19
  ------------------------------------------------------------------------------



     CUMULATIVE VOLUMES      L**3       RATES FOR THIS TIME STEP      L**3/T
     ------------------                 ------------------------

           IN:                                      IN:
           ---                                      ---
        INFILTRATION =  2404223396.3476          INFILTRATION =          23.3175

          OUT:                                     OUT:
          ----                                     ----
              UZF ET =   534191812.7839                UZF ET =          23.3175
        UZF RECHARGE =  1340592632.4238          UZF RECHARGE =          37.6041

            IN - OUT =   529438951.1398              IN - OUT =         -37.6041

          STORAGE:                                 STORAGE:
          --------                                 --------
      STORAGE CHANGE =   529432328.8864        STORAGE CHANGE =         -37.6045

 PERCENT DISCREPANCY IS DIFFERENCE BETWEEN IN-OUT MINUS CHANGE IN STORAGE
 DIVIDED BY THE AVERAGE OF IN AND OUT TIMES 100

 PERCENT DISCREPANCY =           0.00     PERCENT DISCREPANCY =           0.00






1
  VOLUMETRIC BUDGET FOR AGRICULTURAL FIELDS AT  END OF TIME STEP   30, STRESS PERIOD  19
  ------------------------------------------------------------------------------

     CUMULATIVE VOLUMES      L**3       RATES FOR THIS TIME STEP      L**3/T
     ------------------                 ------------------------

           IN:                                      IN:
           ---                                      ---
               AG WELLS  =  1933496832.0000                 AG WELLS  =           6.5962
      DIVERSION SEGMENTS =   430526752.0000        DIVERSION SEGMENTS =          15.8735
           GW IRRIGATION =           0.0000             GW IRRIGATION =           0.0000
           SW IRRIGATION =           0.0000             SW IRRIGATION =           0.0000
        SYSTEM LOSSES GW =           0.0000          SYSTEM LOSSES GW =           0.0000
        SYSTEM LOSSES SW =           0.0000          SYSTEM LOSSES SW =           0.0000

                TOTAL IN =  2364023552.0000                  TOTAL IN =          22.4697

          OUT:                                     OUT:
          ----                                     ----
               AG WELLS  =           0.0000                 AG WELLS  =           0.0000
      DIVERSION SEGMENTS =           0.0000        DIVERSION SEGMENTS =           0.0000
           GW IRRIGATION =  1933496832.0000             GW IRRIGATION =           6.5962
           SW IRRIGATION =   430534688.0000             SW IRRIGATION =          15.8738
        SYSTEM LOSSES GW =           0.0000          SYSTEM LOSSES GW =           0.0000
        SYSTEM LOSSES SW =           0.0000          SYSTEM LOSSES SW =           0.0000

               TOTAL OUT =  2364031488.0000                 TOTAL OUT =          22.4700

                IN - OUT =       -7936.0000                  IN - OUT =      -3.1662E-04

     PERCENT DISCREPANCY =          -0.00         PERCENT DISCREPANCY =          -0.00



1
  VOLUMETRIC BUDGET FOR ENTIRE MODEL AT END OF TIME STEP   30, STRESS PERIOD  19
  ------------------------------------------------------------------------------

     CUMULATIVE VOLUMES      L**3       RATES FOR THIS TIME STEP      L**3/T
     ------------------                 ------------------------

           IN:                                      IN:
           ---                                      ---
             STORAGE     =  2221968640.0000               STORAGE     =           4.3996
       CONSTANT HEAD     =           0.0000         CONSTANT HEAD     =           0.0000
     HEAD DEP BOUNDS     =    13662691.0000       HEAD DEP BOUNDS     =           0.2887
      STREAM LEAKAGE     =   563352128.0000        STREAM LEAKAGE     =          12.2153
        UZF RECHARGE     =  1340592768.0000          UZF RECHARGE     =          37.6041
               GW ET     =           0.0000                 GW ET     =           0.0000
     SURFACE LEAKAGE     =           0.0000       SURFACE LEAKAGE     =           0.0000
           AG WELLS      =           0.0000             AG WELLS      =           0.0000

                TOTAL IN =  4139576320.0000                  TOTAL IN =          54.5078

          OUT:                                     OUT:
          ----                                     ----
             STORAGE     =  1716179328.0000               STORAGE     =          37.9856
       CONSTANT HEAD     =           0.0000         CONSTANT HEAD     =           0.0000
     HEAD DEP BOUNDS     =    13640666.0000       HEAD DEP BOUNDS     =           0.2864
      STREAM LEAKAGE     =   476187488.0000        STREAM LEAKAGE     =           9.6292
        UZF RECHARGE     =           0.0000          UZF RECHARGE     =           0.0000
               GW ET     =           0.0000                 GW ET     =           0.0000
     SURFACE LEAKAGE     =           0.0000       SURFACE LEAKAGE     =           0.0000
           AG WELLS      =  1933496832.0000             AG WELLS      =           6.5962

               TOTAL OUT =  4139504384.0000                 TOTAL OUT =          54.4973

                IN - OUT =       71936.0000                  IN - OUT =       1.0429E-02

     PERCENT DISCREPANCY =           0.00         PERCENT DISCREPANCY =           0.02






         TIME SUMMARY AT END OF TIME STEP   30 IN STRESS PERIOD   19
                    SECONDS     MINUTES      HOURS       DAYS        YEARS
                    -----------------------------------------------------------
   TIME STEP LENGTH  87667.      1461.1      24.352      1.0147     2.77799E-03
 STRESS PERIOD TIME 2.63000E+06  43833.      730.56      30.440     8.33397E-02
         TOTAL TIME 4.74265E+07 7.90442E+05  13174.      548.92      1.5029    
1
1
                            STRESS PERIOD NO.   20, LENGTH =   2630000.    
                            -----------------------------------------------

                              NUMBER OF TIME STEPS =    30

                               MULTIPLIER FOR DELT =     1.000

                            INITIAL TIME STEP SIZE =   87666.66    

 REUSING NON-PARAMETER GHB CELLS FROM LAST STRESS PERIOD

      2 GHB CELLS

 REUSING STREAM SEGMENT DATA FROM LAST STRESS PERIOD



            AREAL INFILTRATION RATE
 READING ON UNIT   19 WITH FORMAT: (FREE)              

            1           2           3           4           5           6           7           8           9          10
 ........................................................................................................................
   1   1.0000E-10  2.0000E-10   0.000       0.000       0.000       0.000       0.000       0.000       0.000       0.000    
   2   2.0000E-10  1.0000E-10  2.0000E-10   0.000       0.000      8.0000E-10  8.0000E-10  5.0000E-10   0.000       0.000    
   3    0.000      5.0000E-10  1.0000E-10  1.0000E-10  8.0000E-10  8.0000E-10  5.0000E-10  5.0000E-10   0.000       0.000    
   4   8.0000E-10  5.0000E-10  1.0000E-10  1.0000E-10  1.0000E-10  1.0000E-10  1.0000E-10  1.0000E-10  2.0000E-10   0.000    
   5   8.0000E-10  5.0000E-10  1.0000E-10  1.0000E-10  1.0000E-10  1.0000E-10  1.0000E-10  1.0000E-10  1.0000E-10  1.0000E-10
   6   8.0000E-10  5.0000E-10  5.0000E-10  2.0000E-10  2.0000E-10  1.0000E-10  1.0000E-10  1.0000E-10  1.0000E-10  5.0000E-10
   7   8.0000E-10  5.0000E-10  5.0000E-10  2.0000E-10  2.0000E-10  1.0000E-10  1.0000E-10  2.0000E-10  2.0000E-10   0.000    
   8    0.000      5.0000E-10  5.0000E-10  2.0000E-10  2.0000E-10  1.0000E-10  1.0000E-10  2.0000E-10  5.0000E-10   0.000    
   9    0.000      5.0000E-10  5.0000E-10  2.0000E-10  2.0000E-10  1.0000E-10  1.0000E-10  2.0000E-10  5.0000E-10   0.000    
  10    0.000      5.0000E-10  5.0000E-10  2.0000E-10  2.0000E-10  1.0000E-10  1.0000E-10  2.0000E-10  5.0000E-10  8.0000E-10
  11    0.000      1.0000E-10  1.0000E-10  1.0000E-10  1.0000E-10  1.0000E-10  1.0000E-10  2.0000E-10  5.0000E-10   0.000    
  12   1.0000E-10  1.0000E-10  1.0000E-10  1.0000E-10  1.0000E-10  1.0000E-10  1.0000E-10  1.0000E-10  2.0000E-10   0.000    
  13   1.0000E-10  1.0000E-10  2.0000E-10  2.0000E-10  2.0000E-10  2.0000E-10  2.0000E-10  1.0000E-10  1.0000E-10   0.000    
  14    0.000      2.0000E-10  5.0000E-10  5.0000E-10  5.0000E-10  5.0000E-10  5.0000E-10  2.0000E-10  1.0000E-10   0.000    
  15    0.000       0.000      8.0000E-10  8.0000E-10  8.0000E-10  8.0000E-10   0.000       0.000       0.000       0.000    

                  ET RATE =  4.000000E-07

 USING ET EXTINCTION DEPTH FROM PREVIOUS STRESS PERIOD. CURRENT PERIOD IS:      20

 USING EXTINCTION WATER CONTENT FROM PREVIOUS STRESS PERIOD. CURRENT PERIOD IS:      20

 USING AIR ENTRY PRESSURE FROM PREVIOUS STRESS PERIOD. CURRENT PERIOD IS:      20

 USING ROOT PRESSURE HEAD FROM PREVIOUS STRESS PERIOD. CURRENT PERIOD IS:      20

 USING ROOT ACTIVITY FROM PREVIOUS STRESS PERIOD. CURRENT PERIOD IS:      20

 PROCESSING AG STRESS PERIOD DATA

 READING AG STRESS PERIOD DATA

 READING IRRIGATION SEGMENT

 READING IRRIGATION WELL

 READING SUPPLEMENTAL WELL

 END PROCESSING AG STRESS PERIOD DATA OPTIONS
 
 SOLVING FOR HEAD 
                                                   Max.-Head-Change                         Max.-Flux-Residual
  Residual-Control   Outer-Iter.   Inner-Iter.     Column Row Layer    Maximum-Head-Change  Column Row Layer    Maximum-Flux-Residual          L2-NORM 
          0                 1           2             4    7     1       0.7356502751E-01       4    7    1         0.3883778522E+01      0.9083642776E+01
          0                 2           2             5    8     1      -0.2552994674E+00       5    8    1        -0.1406535692E+02      0.3360028250E+02
          0                 3           2             4    7     1      -0.9761632210E-01       4    6    1        -0.5311997743E+01      0.1243054996E+02
          0                 4           2             4    7     1      -0.7983820996E-02       4    7    1        -0.4610904524E+00      0.8378393449E+00
          0                 5           2             4    7     1       0.5438230192E-03       4    7    1         0.3191186350E-01      0.4302633864E-01
          0                 6           1             4    7     1      -0.2164949880E-04       4    7    1        -0.1290989422E-02      0.1346554133E-02

    ------------------------------------------------
       NWT REQUIRED            6 OUTER ITERATIONS 
       AND A TOTAL OF         11 INNER ITERATIONS.
    ------------------------------------------------

 OUTPUT CONTROL FOR STRESS PERIOD   20   TIME STEP    1
    PRINT BUDGET
    SAVE BUDGET
    SAVE BUDGET
    SAVE HEAD FOR ALL LAYERS
 UBDSV1 SAVING "         STORAGE" ON UNIT 102 AT TIME STEP  1, STRESS PERIOD  20
 UBDSV2 SAVING "   CONSTANT HEAD" ON UNIT 102 AT TIME STEP  1, STRESS PERIOD  20
 UBDSV1 SAVING "FLOW RIGHT FACE " ON UNIT 102 AT TIME STEP  1, STRESS PERIOD  20
 UBDSV1 SAVING "FLOW FRONT FACE " ON UNIT 102 AT TIME STEP  1, STRESS PERIOD  20

  HEAD DEP BOUNDS   PERIOD   20   STEP     1
 BOUNDARY      1   LAYER   1   ROW    13   COL     1   RATE   -0.286364    
 BOUNDARY      2   LAYER   1   ROW    14   COL     9   RATE    0.288659    



 STREAM LISTING     PERIOD     20   STEP        1

 LAYER ROW COL. STREAM  RCH.  FLOW INTO     FLOW TO   FLOW OUT OF   OVRLND.     DIRECT     STREAM       STREAM     STREAM     STREAM   STREAMBED  STREAMBED
                SEG.NO.  NO.  STRM. RCH.    AQUIFER    STRM. RCH.    RUNOFF     PRECIP       ET          HEAD       DEPTH      WIDTH   CONDCTNC.   GRADIENT

   1    1    1     1     1    2.0250E+01  2.2212E-01   2.0028E+01  0.000E+00  0.000E+00  0.000E+00  1.09415E+03  1.102E+00  1.203E+01  5.414E-02  1.367E+00
   1    2    2     1     2    2.0028E+01  3.4298E-01   1.9685E+01  0.000E+00  0.000E+00  0.000E+00  1.08916E+03  1.098E+00  1.196E+01  8.370E-02  1.366E+00
   1    3    3     1     3    1.9685E+01  2.9127E-01   1.9394E+01  0.000E+00  0.000E+00  0.000E+00  1.08351E+03  1.093E+00  1.186E+01  7.117E-02  1.364E+00
   1    3    4     1     4    1.9394E+01  2.6721E-01   1.9127E+01  0.000E+00  0.000E+00  0.000E+00  1.07850E+03  1.088E+00  1.178E+01  6.536E-02  1.363E+00
   1    4    5     2     1    1.7127E+01  3.0866E-01   1.6818E+01  0.000E+00  0.000E+00  0.000E+00  1.07289E+03  9.572E-01  1.200E+01  7.800E-02  1.319E+00
   1    5    6     2     2    1.6818E+01  2.3687E-01   1.6581E+01  0.000E+00  0.000E+00  0.000E+00  1.06746E+03  9.479E-01  1.200E+01  6.000E-02  1.316E+00
   1    6    6     2     3    1.6581E+01  2.3639E-01   1.6345E+01  0.000E+00  0.000E+00  0.000E+00  1.06273E+03  9.398E-01  1.200E+01  6.000E-02  1.313E+00
   1    7    6     2     4    1.6345E+01  2.3590E-01   1.6109E+01  0.000E+00  0.000E+00  0.000E+00  1.05801E+03  9.317E-01  1.200E+01  6.000E-02  1.311E+00
   1    8    6     2     5    1.6109E+01  2.3541E-01   1.5873E+01  0.000E+00  0.000E+00  0.000E+00  1.05328E+03  9.236E-01  1.200E+01  6.000E-02  1.308E+00
   1    3    5     3     1    2.0000E+00  2.8252E-01   1.7175E+00  0.000E+00  0.000E+00  0.000E+00  1.07555E+03  1.909E+00  9.636E+00  7.227E-02  1.955E+00
   1    3    6     3     2    1.7175E+00  2.4905E-01   1.4684E+00  0.000E+00  0.000E+00  0.000E+00  1.07264E+03  1.727E+00  8.909E+00  6.682E-02  1.864E+00
   1    3    7     3     3    1.4684E+00  1.9718E-01   1.2712E+00  0.000E+00  0.000E+00  0.000E+00  1.06987E+03  1.555E+00  8.218E+00  5.547E-02  1.777E+00
   1    4    8     3     4    1.2712E+00  2.2567E-01   1.0456E+00  0.000E+00  0.000E+00  0.000E+00  1.06682E+03  1.364E+00  7.455E+00  6.709E-02  1.682E+00
   1    5    8     3     5    1.0456E+00  1.5790E-01   8.8768E-01  0.000E+00  0.000E+00  0.000E+00  1.06362E+03  1.164E+00  6.655E+00  4.991E-02  1.582E+00
   1    6    8     3     6    8.8768E-01  5.5980E-02   8.3170E-01  0.000E+00  0.000E+00  0.000E+00  1.06158E+03  1.036E+00  6.145E+00  1.844E-02  1.518E+00
   1    5   10     4     1    1.0000E+01  9.0919E-02   9.9091E+00  0.000E+00  0.000E+00  0.000E+00  1.07836E+03  6.368E-01  1.000E+01  2.500E-02  1.212E+00
   1    5    9     4     2    9.9091E+00  1.8158E-01   9.7275E+00  0.000E+00  0.000E+00  0.000E+00  1.07154E+03  6.315E-01  1.000E+01  5.000E-02  1.211E+00
   1    6    8     4     3    9.7275E+00  1.2689E-01   9.6006E+00  0.000E+00  0.000E+00  0.000E+00  1.06381E+03  6.256E-01  1.000E+01  3.500E-02  1.209E+00
   1    6    8     5     1    1.0432E+01  2.2686E-01   1.0205E+01  0.000E+00  0.000E+00  0.000E+00  1.05868E+03  6.790E-01  1.542E+01  6.166E-02  1.226E+00
   1    7    7     5     2    1.0205E+01  2.7894E-01   9.9265E+00  0.000E+00  0.000E+00  0.000E+00  1.05417E+03  6.732E-01  1.519E+01  7.594E-02  1.224E+00
   1    8    7     5     3    9.9265E+00  1.9221E-01   9.7343E+00  0.000E+00  0.000E+00  0.000E+00  1.04992E+03  6.676E-01  1.497E+01  5.241E-02  1.223E+00
   1    8    6     5     4    9.7343E+00  1.3577E-01   9.5985E+00  0.000E+00  0.000E+00  0.000E+00  1.04691E+03  6.637E-01  1.482E+01  3.706E-02  1.221E+00
   1    9    6     6     1    9.5985E+00  2.2097E-01   9.3776E+00  0.000E+00  0.000E+00  0.000E+00  1.04341E+03  6.828E-01  1.200E+01  6.000E-02  1.228E+00
   1   10    7     6     2    9.3776E+00  2.2039E-01   9.1572E+00  0.000E+00  0.000E+00  0.000E+00  1.03885E+03  6.732E-01  1.200E+01  6.000E-02  1.224E+00
   1   11    7     6     3    9.1572E+00  2.1981E-01   8.9374E+00  0.000E+00  0.000E+00  0.000E+00  1.03430E+03  6.636E-01  1.200E+01  6.000E-02  1.221E+00
   1   12    7     6     4    8.9374E+00  2.1923E-01   8.7181E+00  0.000E+00  0.000E+00  0.000E+00  1.02974E+03  6.539E-01  1.200E+01  6.000E-02  1.218E+00
   1   13    7     6     5    8.7181E+00 -3.2057E-03   8.7213E+00  0.000E+00  0.000E+00  0.000E+00  1.02656E+03  6.490E-01  1.200E+01  2.400E-01 -4.452E-03
   1   14    9     7     1    1.5000E+02  1.3784E+00   1.4862E+02  0.000E+00  0.000E+00  0.000E+00  1.03987E+03  2.288E+00  5.529E+01  5.593E-01  8.215E-01
   1   13    8     7     2    1.4862E+02  1.9864E+00   1.4664E+02  0.000E+00  0.000E+00  0.000E+00  1.03478E+03  2.279E+00  5.525E+01  6.147E-01  1.077E+00
   1   13    7     7     3    1.4664E+02  1.7402E+00   1.4489E+02  0.000E+00  0.000E+00  0.000E+00  1.02969E+03  2.269E+00  5.521E+01  5.584E-01  1.039E+00
   1   13    6     8     1    1.5362E+02  1.0976E+00   1.5252E+02  0.000E+00  0.000E+00  0.000E+00  1.02471E+03  2.838E+00  4.116E+01  4.194E-01  8.724E-01
   1   13    5     8     2    1.5252E+02  3.5505E-01   1.5216E+02  0.000E+00  0.000E+00  0.000E+00  1.01846E+03  2.833E+00  4.108E+01  4.186E-01  2.827E-01
   1   13    4     8     3    1.5216E+02 -1.8000E+00   1.5396E+02  0.000E+00  0.000E+00  0.000E+00  1.01221E+03  2.838E+00  4.116E+01  4.194E+00 -1.431E-01
   1   13    3     8     4    1.5396E+02 -3.3357E+00   1.5730E+02  0.000E+00  0.000E+00  0.000E+00  1.00598E+03  2.856E+00  4.141E+01  4.220E+00 -2.635E-01
   1   13    2     8     5    1.5730E+02 -2.5143E+00   1.5981E+02  0.000E+00  0.000E+00  0.000E+00  9.99751E+02  2.876E+00  4.170E+01  4.250E+00 -1.972E-01
   1   13    1     8     6    1.5981E+02 -1.9728E+00   1.6179E+02  0.000E+00  0.000E+00  0.000E+00  9.94766E+02  2.891E+00  4.192E+01  2.563E+00 -2.566E-01
   1    8    6     9     1    1.5873E+01  0.0000E+00   1.5873E+01  0.000E+00  0.000E+00  0.000E+00  1.08174E+03  2.990E+00  4.000E+00  0.000E+00  1.997E+00
   1    8    5     9     2    1.5873E+01  0.0000E+00   1.5873E+01  0.000E+00  0.000E+00  0.000E+00  1.08124E+03  2.990E+00  4.000E+00  0.000E+00  1.997E+00



 UBDSV3 SAVING "           GW ET" ON UNIT  61 AT TIME STEP  1, STRESS PERIOD  20
 UBDSV3 SAVING "    UZF RECHARGE" ON UNIT  61 AT TIME STEP  1, STRESS PERIOD  20
 UBDSV3 SAVING " SURFACE LEAKAGE" ON UNIT  61 AT TIME STEP  1, STRESS PERIOD  20
 UBDSV3 SAVING "       HORT+DUNN" ON UNIT  61 AT TIME STEP  1, STRESS PERIOD  20
 UBDSV3 SAVING "  STORAGE CHANGE" ON UNIT  61 AT TIME STEP  1, STRESS PERIOD  20


UNSATURATED ZONE PACKAGE VOLUMETRIC BUDGET FOR  TIME STEP     1 STRESS PERIOD   20
  ------------------------------------------------------------------------------



     CUMULATIVE VOLUMES      L**3       RATES FOR THIS TIME STEP      L**3/T
     ------------------                 ------------------------

           IN:                                      IN:
           ---                                      ---
        INFILTRATION =  2413423453.3435          INFILTRATION =         104.9436

          OUT:                                     OUT:
          ----                                     ----
              UZF ET =   539523480.0298                UZF ET =          60.8175
        UZF RECHARGE =  1340592632.4238          UZF RECHARGE =       0.0000E+00

            IN - OUT =   533307340.8898              IN - OUT =          44.1261

          STORAGE:                                 STORAGE:
          --------                                 --------
      STORAGE CHANGE =   533300691.7407        STORAGE CHANGE =          44.1258

 PERCENT DISCREPANCY IS DIFFERENCE BETWEEN IN-OUT MINUS CHANGE IN STORAGE
 DIVIDED BY THE AVERAGE OF IN AND OUT TIMES 100

 PERCENT DISCREPANCY =           0.00     PERCENT DISCREPANCY =           0.00






 

            AG WELLS      PERIOD   20   STEP   1
 AG WELL      1   LAYER   1   ROW     6   COL     4   RATE    -14.7037    
 AG WELL      2   LAYER   1   ROW     6   COL     5   RATE    -14.7037    
 AG WELL      3   LAYER   1   ROW     7   COL     4   RATE    -14.7037    
 AG WELL      4   LAYER   1   ROW     7   COL     5   RATE    -14.7037    
 AG WELL      5   LAYER   1   ROW     8   COL     4   RATE    -14.7037    
 AG WELL      6   LAYER   1   ROW     8   COL     5   RATE    -14.7037    
 
 

   DIVERSION SEGMENTS     PERIOD   20   STEP   1
 SEGMENT      9   RATE     15.8735    
 
 

        SW IRRIGATION     PERIOD   20   STEP   1
 SEGMENT      9   ROW     6   COL     4   RATE     2.64564    
 SEGMENT      9   ROW     6   COL     5   RATE     2.64564    
 SEGMENT      9   ROW     7   COL     4   RATE     2.64564    
 SEGMENT      9   ROW     7   COL     5   RATE     2.64564    
 SEGMENT      9   ROW     8   COL     4   RATE     2.64564    
 SEGMENT      9   ROW     8   COL     5   RATE     2.64564    
 
 

        GW IRRIGATION     PERIOD   20   STEP   1
 AG WELL      1   ROW     6   COL     4   RATE     14.7037    
 AG WELL      2   ROW     6   COL     5   RATE     14.7037    
 AG WELL      3   ROW     7   COL     4   RATE     14.7037    
 AG WELL      4   ROW     7   COL     5   RATE     14.7037    
 AG WELL      5   ROW     8   COL     4   RATE     14.7037    
 AG WELL      6   ROW     8   COL     5   RATE     14.7037    
 
1
  VOLUMETRIC BUDGET FOR AGRICULTURAL FIELDS AT  END OF TIME STEP    1, STRESS PERIOD  20
  ------------------------------------------------------------------------------

     CUMULATIVE VOLUMES      L**3       RATES FOR THIS TIME STEP      L**3/T
     ------------------                 ------------------------

           IN:                                      IN:
           ---                                      ---
               AG WELLS  =  1941230976.0000                 AG WELLS  =          88.2223
      DIVERSION SEGMENTS =   431918336.0000        DIVERSION SEGMENTS =          15.8735
           GW IRRIGATION =           0.0000             GW IRRIGATION =           0.0000
           SW IRRIGATION =           0.0000             SW IRRIGATION =           0.0000
        SYSTEM LOSSES GW =           0.0000          SYSTEM LOSSES GW =           0.0000
        SYSTEM LOSSES SW =           0.0000          SYSTEM LOSSES SW =           0.0000

                TOTAL IN =  2373149184.0000                  TOTAL IN =         104.0958

          OUT:                                     OUT:
          ----                                     ----
               AG WELLS  =           0.0000                 AG WELLS  =           0.0000
      DIVERSION SEGMENTS =           0.0000        DIVERSION SEGMENTS =           0.0000
           GW IRRIGATION =  1941230976.0000             GW IRRIGATION =          88.2223
           SW IRRIGATION =   431926304.0000             SW IRRIGATION =          15.8738
        SYSTEM LOSSES GW =           0.0000          SYSTEM LOSSES GW =           0.0000
        SYSTEM LOSSES SW =           0.0000          SYSTEM LOSSES SW =           0.0000

               TOTAL OUT =  2373157376.0000                 TOTAL OUT =         104.0961

                IN - OUT =       -8192.0000                  IN - OUT =      -3.2043E-04

     PERCENT DISCREPANCY =          -0.00         PERCENT DISCREPANCY =          -0.00




 HEAD WILL BE SAVED ON UNIT   62 AT END OF TIME STEP    1, STRESS PERIOD   20
1
  VOLUMETRIC BUDGET FOR ENTIRE MODEL AT END OF TIME STEP    1, STRESS PERIOD  20
  ------------------------------------------------------------------------------

     CUMULATIVE VOLUMES      L**3       RATES FOR THIS TIME STEP      L**3/T
     ------------------                 ------------------------

           IN:                                      IN:
           ---                                      ---
             STORAGE     =  2231092992.0000               STORAGE     =         104.0804
       CONSTANT HEAD     =           0.0000         CONSTANT HEAD     =           0.0000
     HEAD DEP BOUNDS     =    13687997.0000       HEAD DEP BOUNDS     =           0.2887
      STREAM LEAKAGE     =   564423104.0000        STREAM LEAKAGE     =          12.2164
        UZF RECHARGE     =  1340592768.0000          UZF RECHARGE     =           0.0000
               GW ET     =           0.0000                 GW ET     =           0.0000
     SURFACE LEAKAGE     =           0.0000       SURFACE LEAKAGE     =           0.0000
           AG WELLS      =           0.0000             AG WELLS      =           0.0000

                TOTAL IN =  4149796864.0000                  TOTAL IN =         116.5854

          OUT:                                     OUT:
          ----                                     ----
             STORAGE     =  1717796864.0000               STORAGE     =          18.4507
       CONSTANT HEAD     =           0.0000         CONSTANT HEAD     =           0.0000
     HEAD DEP BOUNDS     =    13665771.0000       HEAD DEP BOUNDS     =           0.2864
      STREAM LEAKAGE     =   477031360.0000        STREAM LEAKAGE     =           9.6260
        UZF RECHARGE     =           0.0000          UZF RECHARGE     =           0.0000
               GW ET     =           0.0000                 GW ET     =           0.0000
     SURFACE LEAKAGE     =           0.0000       SURFACE LEAKAGE     =           0.0000
           AG WELLS      =  1941230976.0000             AG WELLS      =          88.2223

               TOTAL OUT =  4149725184.0000                 TOTAL OUT =         116.5854

                IN - OUT =       71680.0000                  IN - OUT =       3.0518E-05

     PERCENT DISCREPANCY =           0.00         PERCENT DISCREPANCY =           0.00






         TIME SUMMARY AT END OF TIME STEP    1 IN STRESS PERIOD   20
                    SECONDS     MINUTES      HOURS       DAYS        YEARS
                    -----------------------------------------------------------
   TIME STEP LENGTH  87667.      1461.1      24.352      1.0147     2.77799E-03
 STRESS PERIOD TIME  87667.      1461.1      24.352      1.0147     2.77799E-03
         TOTAL TIME 4.75142E+07 7.91903E+05  13198.      549.93      1.5056    
1
 
 SOLVING FOR HEAD 
                                                   Max.-Head-Change                         Max.-Flux-Residual
  Residual-Control   Outer-Iter.   Inner-Iter.     Column Row Layer    Maximum-Head-Change  Column Row Layer    Maximum-Flux-Residual          L2-NORM 
          0                 1           2             4    5     1       0.4483634514E-01       4    5    1         0.2396654144E+01      0.5968478644E+01
          0                 2           2             5    8     1      -0.5372381422E-01       5    8    1        -0.2885673240E+01      0.6028115745E+01
          0                 3           2             5    8     1      -0.1830588258E+01       4    8    1        -0.9827413153E+02      0.2405193934E+03
          0                 4           2             5    8     1       0.1761841424E+00       5    8    1         0.9823262367E+01      0.1426551651E+02
          0                 5           2             5    8     1      -0.1210831295E-01       5    8    1        -0.6999052123E+00      0.8138992291E+00
          0                 6           1             5    8     1       0.4817920039E-03       5    8    1         0.2881684566E-01      0.2924865844E-01
          0                 7           1             5    8     1      -0.5940720037E-05       5    8    1        -0.3675525745E-03      0.3773907467E-03

    ------------------------------------------------
       NWT REQUIRED            7 OUTER ITERATIONS 
       AND A TOTAL OF         12 INNER ITERATIONS.
    ------------------------------------------------

 NO OUTPUT CONTROL FOR STRESS PERIOD   20   TIME STEP    2
 
 SOLVING FOR HEAD 
                                                   Max.-Head-Change                         Max.-Flux-Residual
  Residual-Control   Outer-Iter.   Inner-Iter.     Column Row Layer    Maximum-Head-Change  Column Row Layer    Maximum-Flux-Residual          L2-NORM 
          0                 1           2             3    7     1       0.1909545323E-01       5    8    1         0.1050340512E+01      0.2453078548E+01
          0                 2           2             5    8     1      -0.4993466278E-01       5    8    1        -0.2750620586E+01      0.6547604295E+01
          0                 3           2             4    7     1       0.5227864251E-01       4    6    1         0.2814896471E+01      0.6829750609E+01
          0                 4           2             4    7     1      -0.1813212364E+01       5    7    1        -0.1001037060E+03      0.2451271328E+03
          0                 5           2             4    7     1       0.7171900457E-01       5    7    1         0.4183916221E+01      0.8397935526E+01
          0                 6           2             4    7     1      -0.8843606732E-03       5    7    1        -0.5417677760E-01      0.1096286421E+00
          0                 7           1             4    7     1      -0.1300650358E-04       5    7    1        -0.7967778783E-03      0.1612250537E-02

    ------------------------------------------------
       NWT REQUIRED            7 OUTER ITERATIONS 
       AND A TOTAL OF         13 INNER ITERATIONS.
    ------------------------------------------------

 NO OUTPUT CONTROL FOR STRESS PERIOD   20   TIME STEP    3
 
 SOLVING FOR HEAD 
                                                   Max.-Head-Change                         Max.-Flux-Residual
  Residual-Control   Outer-Iter.   Inner-Iter.     Column Row Layer    Maximum-Head-Change  Column Row Layer    Maximum-Flux-Residual          L2-NORM 
          0                 1           2             5    8     1       0.7090718457E-01       5    8    1         0.3918345957E+01      0.6692688843E+01
          0                 2           2             5    8     1      -0.5495129500E-01       5    8    1        -0.3037419411E+01      0.7014227410E+01
          0                 3           2             4    7     1       0.5242013072E-01       4    7    1         0.2816592765E+01      0.6765720465E+01
          0                 4           2             4    7     1      -0.1814309007E+01       4    7    1        -0.1001049243E+03      0.2450242869E+03
          0                 5           2             4    7     1       0.7217380693E-01       4    7    1         0.4219972879E+01      0.5050835711E+01
          0                 6           2             4    7     1      -0.8901424437E-03       4    7    1        -0.5505186081E-01      0.7000388180E-01
          0                 7           1             4    7     1      -0.1309154678E-04       4    7    1        -0.8096448214E-03      0.1029286925E-02

    ------------------------------------------------
       NWT REQUIRED            7 OUTER ITERATIONS 
       AND A TOTAL OF         13 INNER ITERATIONS.
    ------------------------------------------------

 NO OUTPUT CONTROL FOR STRESS PERIOD   20   TIME STEP    4
 
 SOLVING FOR HEAD 
                                                   Max.-Head-Change                         Max.-Flux-Residual
  Residual-Control   Outer-Iter.   Inner-Iter.     Column Row Layer    Maximum-Head-Change  Column Row Layer    Maximum-Flux-Residual          L2-NORM 
          0                 1           2             5    8     1       0.1204882953E+00       5    8    1         0.6649209808E+01      0.1238597850E+02
          0                 2           2             5    8     1      -0.5977439203E-01       5    8    1        -0.3310498668E+01      0.7482533260E+01
          0                 3           2             4    7     1       0.4963640864E-01       5    8    1         0.2781475172E+01      0.6764154218E+01
          0                 4           2             4    7     1      -0.1763642448E+01       5    8    1        -0.1000178991E+03      0.2449908148E+03
          0                 5           2             4    7     1       0.2172781815E-01       4    7    1         0.1266287077E+01      0.3102571283E+01
          0                 6           2             4    7     1       0.3195529850E-03       5    8    1         0.1866221461E-01      0.4575485871E-01
          0                 7           1             4    7     1       0.4696543930E-05       5    8    1         0.2742801473E-03      0.6725388814E-03

    ------------------------------------------------
       NWT REQUIRED            7 OUTER ITERATIONS 
       AND A TOTAL OF         13 INNER ITERATIONS.
    ------------------------------------------------

 NO OUTPUT CONTROL FOR STRESS PERIOD   20   TIME STEP    5
 
 SOLVING FOR HEAD 
                                                   Max.-Head-Change                         Max.-Flux-Residual
  Residual-Control   Outer-Iter.   Inner-Iter.     Column Row Layer    Maximum-Head-Change  Column Row Layer    Maximum-Flux-Residual          L2-NORM 
          0                 1           2             5    8     1       0.1673098890E+00       5    8    1         0.9225793027E+01      0.1793574642E+02
          0                 2           2             5    8     1      -0.6432898881E-01       5    8    1        -0.3568144719E+01      0.7948152737E+01
          0                 3           2             4    7     1       0.4971705888E-01       5    8    1         0.2799510446E+01      0.6794133549E+01
          0                 4           2             4    7     1      -0.1763679743E+01       5    8    1        -0.1000186441E+03      0.2449920412E+03
          0                 5           2             4    7     1       0.2172827575E-01       4    7    1         0.1266288734E+01      0.3102578694E+01
          0                 6           2             4    7     1       0.3195597147E-03       5    8    1         0.1866243391E-01      0.4575512260E-01
          0                 7           1             4    7     1       0.4696643177E-05       5    8    1         0.2742833842E-03      0.6724669927E-03

    ------------------------------------------------
       NWT REQUIRED            7 OUTER ITERATIONS 
       AND A TOTAL OF         13 INNER ITERATIONS.
    ------------------------------------------------

 NO OUTPUT CONTROL FOR STRESS PERIOD   20   TIME STEP    6
 
 SOLVING FOR HEAD 
                                                   Max.-Head-Change                         Max.-Flux-Residual
  Residual-Control   Outer-Iter.   Inner-Iter.     Column Row Layer    Maximum-Head-Change  Column Row Layer    Maximum-Flux-Residual          L2-NORM 
          0                 1           2             5    8     1       0.2115642164E+00       5    8    1         0.1165894211E+02      0.2325784754E+02
          0                 2           2             5    8     1      -0.6863380150E-01       5    8    1        -0.3811443170E+01      0.8406889564E+01
          0                 3           2             4    7     1       0.4980166214E-01       5    8    1         0.2816541442E+01      0.6823149867E+01
          0                 4           2             4    7     1      -0.1763719979E+01       5    8    1        -0.1000193476E+03      0.2449932248E+03
          0                 5           2             4    7     1       0.2172876924E-01       4    7    1         0.1266290506E+01      0.3102584249E+01
          0                 6           2             4    7     1       0.3195669724E-03       5    8    1         0.1866263960E-01      0.4575529709E-01
          0                 7           1             4    7     1       0.4696749817E-05       5    8    1         0.2742864071E-03      0.6724695962E-03

    ------------------------------------------------
       NWT REQUIRED            7 OUTER ITERATIONS 
       AND A TOTAL OF         13 INNER ITERATIONS.
    ------------------------------------------------

 NO OUTPUT CONTROL FOR STRESS PERIOD   20   TIME STEP    7
 
 SOLVING FOR HEAD 
                                                   Max.-Head-Change                         Max.-Flux-Residual
  Residual-Control   Outer-Iter.   Inner-Iter.     Column Row Layer    Maximum-Head-Change  Column Row Layer    Maximum-Flux-Residual          L2-NORM 
          0                 1           2             5    8     1       0.2534280663E+00       5    8    1         0.1395862644E+02      0.2834694853E+02
          0                 2           2             5    8     1      -0.7270603979E-01       5    8    1        -0.4041391759E+01      0.8856020045E+01
          0                 3           2             5    8     1       0.5000549119E-01       5    8    1         0.2832637994E+01      0.6851231753E+01
          0                 4           2             4    7     1      -0.1763762925E+01       5    8    1        -0.1000200121E+03      0.2449943670E+03
          0                 5           2             4    7     1       0.2172929577E-01       4    7    1         0.1266292381E+01      0.3102591089E+01
          0                 6           2             4    7     1       0.3195747158E-03       5    8    1         0.1866283311E-01      0.4575551879E-01
          0                 7           1             4    7     1       0.4696863627E-05       5    8    1         0.2742892382E-03      0.6724752252E-03

    ------------------------------------------------
       NWT REQUIRED            7 OUTER ITERATIONS 
       AND A TOTAL OF         13 INNER ITERATIONS.
    ------------------------------------------------

 NO OUTPUT CONTROL FOR STRESS PERIOD   20   TIME STEP    8
 
 SOLVING FOR HEAD 
                                                   Max.-Head-Change                         Max.-Flux-Residual
  Residual-Control   Outer-Iter.   Inner-Iter.     Column Row Layer    Maximum-Head-Change  Column Row Layer    Maximum-Flux-Residual          L2-NORM 
          0                 1           2             5    8     1       0.2930645188E+00       5    8    1         0.1613403707E+02      0.3321084815E+02
          0                 2           2             5    8     1      -0.7656160593E-01       5    8    1        -0.4258910261E+01      0.9293614929E+01
          0                 3           2             5    8     1       0.5026834380E-01       5    8    1         0.2847864477E+01      0.6878409363E+01
          0                 4           2             4    7     1      -0.1763808361E+01       5    8    1        -0.1000206349E+03      0.2449954616E+03
          0                 5           2             4    7     1       0.2172985269E-01       4    7    1         0.1266294320E+01      0.3102606215E+01
          0                 6           2             4    7     1       0.3195829064E-03       5    8    1         0.1866323616E-01      0.4575601714E-01
          0                 7           1             4    7     1       0.4696983709E-05       5    8    1         0.2742951640E-03      0.6724801856E-03

    ------------------------------------------------
       NWT REQUIRED            7 OUTER ITERATIONS 
       AND A TOTAL OF         13 INNER ITERATIONS.
    ------------------------------------------------

 NO OUTPUT CONTROL FOR STRESS PERIOD   20   TIME STEP    9
 
 SOLVING FOR HEAD 
                                                   Max.-Head-Change                         Max.-Flux-Residual
  Residual-Control   Outer-Iter.   Inner-Iter.     Column Row Layer    Maximum-Head-Change  Column Row Layer    Maximum-Flux-Residual          L2-NORM 
          0                 1           2             5    8     1       0.3306250306E+00       5    8    1         0.1819366006E+02      0.3786102326E+02
          0                 2           2             5    8     1      -0.8021403629E-01       5    8    1        -0.4464847912E+01      0.9719685756E+01
          0                 3           2             5    8     1       0.5051735145E-01       5    8    1         0.2862280348E+01      0.6904720575E+01
          0                 4           2             4    7     1      -0.1763856075E+01       5    8    1        -0.1000212245E+03      0.2449965191E+03
          0                 5           2             4    7     1       0.2173043724E-01       4    7    1         0.1266296336E+01      0.3102605725E+01
          0                 6           2             4    7     1       0.3195915027E-03       5    8    1         0.1866317703E-01      0.4575596949E-01
          0                 7           1             4    7     1       0.4697110400E-05       5    8    1         0.2742942861E-03      0.6724799736E-03

    ------------------------------------------------
       NWT REQUIRED            7 OUTER ITERATIONS 
       AND A TOTAL OF         13 INNER ITERATIONS.
    ------------------------------------------------

 NO OUTPUT CONTROL FOR STRESS PERIOD   20   TIME STEP   10
 
 SOLVING FOR HEAD 
                                                   Max.-Head-Change                         Max.-Flux-Residual
  Residual-Control   Outer-Iter.   Inner-Iter.     Column Row Layer    Maximum-Head-Change  Column Row Layer    Maximum-Flux-Residual          L2-NORM 
          0                 1           2             5    8     1       0.3662524590E+00       5    8    1         0.2014543483E+02      0.4230707022E+02
          0                 2           2             5    8     1      -0.8361266883E-01       5    8    1        -0.4655556232E+01      0.1013140738E+02
          0                 3           2             5    8     1       0.5074864111E-01       5    8    1         0.2875629776E+01      0.6930179649E+01
          0                 4           2             4    7     1      -0.1763906134E+01       5    8    1        -0.1000217705E+03      0.2449975412E+03
          0                 5           2             4    7     1       0.2173105162E-01       4    7    1         0.1266298480E+01      0.3102612605E+01
          0                 6           2             4    7     1       0.3196005380E-03       5    8    1         0.1866331831E-01      0.4575616771E-01
          0                 7           1             4    7     1       0.4697243365E-05       5    8    1         0.2742963622E-03      0.6724900951E-03

    ------------------------------------------------
       NWT REQUIRED            7 OUTER ITERATIONS 
       AND A TOTAL OF         13 INNER ITERATIONS.
    ------------------------------------------------

 NO OUTPUT CONTROL FOR STRESS PERIOD   20   TIME STEP   11
 
 SOLVING FOR HEAD 
                                                   Max.-Head-Change                         Max.-Flux-Residual
  Residual-Control   Outer-Iter.   Inner-Iter.     Column Row Layer    Maximum-Head-Change  Column Row Layer    Maximum-Flux-Residual          L2-NORM 
          0                 1           2             5    8     1       0.4002586310E+00       5    8    1         0.2200113839E+02      0.4656255199E+02
          0                 2           2             5    8     1      -0.8698789873E-01       5    8    1        -0.4845596968E+01      0.1053120396E+02
          0                 3           2             5    8     1       0.5097879005E-01       5    8    1         0.2888932777E+01      0.6954835070E+01
          0                 4           2             4    7     1      -0.1763990868E+01       5    8    1        -0.1000223146E+03      0.2449985296E+03
          0                 5           2             4    7     1       0.2173209264E-01       4    7    1         0.1266301097E+01      0.3102619418E+01
          0                 6           2             4    7     1       0.3196158490E-03       5    8    1         0.1866347094E-01      0.4575634583E-01
          0                 7           1             4    7     1       0.4697467959E-05       5    8    1         0.2742986107E-03      0.6724849497E-03

    ------------------------------------------------
       NWT REQUIRED            7 OUTER ITERATIONS 
       AND A TOTAL OF         13 INNER ITERATIONS.
    ------------------------------------------------

 NO OUTPUT CONTROL FOR STRESS PERIOD   20   TIME STEP   12
 
 SOLVING FOR HEAD 
                                                   Max.-Head-Change                         Max.-Flux-Residual
  Residual-Control   Outer-Iter.   Inner-Iter.     Column Row Layer    Maximum-Head-Change  Column Row Layer    Maximum-Flux-Residual          L2-NORM 
          0                 1           2             5    8     1       0.4325068237E+00       5    8    1         0.2376445881E+02      0.5063757365E+02
          0                 2           2             5    8     1      -0.9012566502E-01       5    8    1        -0.5021906181E+01      0.1091752677E+02
          0                 3           2             5    8     1       0.5119278953E-01       5    8    1         0.2901274658E+01      0.6978705246E+01
          0                 4           2             4    7     1      -0.1764043954E+01       5    8    1        -0.1000228194E+03      0.2449994857E+03
          0                 5           2             4    7     1       0.2173274286E-01       4    7    1         0.1266303121E+01      0.3102625878E+01
          0                 6           2             4    7     1       0.3196254115E-03       5    8    1         0.1866361379E-01      0.4575651090E-01
          0                 7           1             4    7     1       0.4697608540E-05       5    8    1         0.2743006967E-03      0.6725172138E-03

    ------------------------------------------------
       NWT REQUIRED            7 OUTER ITERATIONS 
       AND A TOTAL OF         13 INNER ITERATIONS.
    ------------------------------------------------

 NO OUTPUT CONTROL FOR STRESS PERIOD   20   TIME STEP   13
 
 SOLVING FOR HEAD 
                                                   Max.-Head-Change                         Max.-Flux-Residual
  Residual-Control   Outer-Iter.   Inner-Iter.     Column Row Layer    Maximum-Head-Change  Column Row Layer    Maximum-Flux-Residual          L2-NORM 
          0                 1           2             5    8     1       0.5032146087E+00       5    8    1         0.2764740979E+02      0.5560685024E+02
          0                 2           2             5    8     1       0.2397557587E+00       5    8    1         0.1330602358E+02      0.1666144148E+02
          0                 3           2             5    8     1       0.1853706141E+00       5    8    1         0.1013843568E+02      0.1197466117E+02
          0                 4           2             4    7     1      -0.1764057183E+01       5    6    1        -0.1000229900E+03      0.2426078323E+03
          0                 5           2             5    8     1      -0.5284221863E+00       5    8    1        -0.2998138075E+02      0.3010838430E+02
          0                 6           2             5    8     1       0.3597042141E-01       5    8    1         0.2096276651E+01      0.2096747585E+01
          0                 7           1             5    8     1      -0.1431720574E-02       5    8    1        -0.8580019754E-01      0.8583649543E-01
          0                 8           1             5    8     1       0.1766670401E-04       5    8    1         0.1088222801E-02      0.1088762792E-02

    ------------------------------------------------
       NWT REQUIRED            8 OUTER ITERATIONS 
       AND A TOTAL OF         14 INNER ITERATIONS.
    ------------------------------------------------

 NO OUTPUT CONTROL FOR STRESS PERIOD   20   TIME STEP   14
 
 SOLVING FOR HEAD 
                                                   Max.-Head-Change                         Max.-Flux-Residual
  Residual-Control   Outer-Iter.   Inner-Iter.     Column Row Layer    Maximum-Head-Change  Column Row Layer    Maximum-Flux-Residual          L2-NORM 
          0                 1           2             5    8     1       0.1351810511E+01       5    8    1         0.7441050166E+02      0.9057313197E+02
          0                 2           2             5    8     1       0.7272859178E+00       5    8    1         0.4018702730E+02      0.4149820355E+02
          0                 3           2             5    8     1       0.4654207881E+00       5    8    1         0.2558038961E+02      0.2636947192E+02
          0                 4           2             4    7     1      -0.1764054059E+01       5    6    1        -0.1000234384E+03      0.2392994341E+03
          0                 5           2             5    8     1      -0.9111241434E+00       5    8    1        -0.5167887390E+02      0.5175294456E+02
          0                 6           2             5    8     1      -0.5342025390E+00       5    8    1        -0.3027389267E+02      0.3027398776E+02
          0                 7           2             5    8     1      -0.3132193422E+00       5    8    1        -0.1774832792E+02      0.1774847524E+02
          0                 8           2             5    8     1      -0.1836533857E+00       5    8    1        -0.1040599305E+02      0.1040608544E+02
          0                 9           2             5    8     1      -0.1076843716E+00       5    8    1        -0.6101294181E+01      0.6101348741E+01
          0                10           2             5    8     1      -0.6314038284E-01       5    8    1        -0.3577386708E+01      0.3577418761E+01
                                                   Max.-Head-Change                         Max.-Flux-Residual
  Residual-Control   Outer-Iter.   Inner-Iter.     Column Row Layer    Maximum-Head-Change  Column Row Layer    Maximum-Flux-Residual          L2-NORM 
          0                11           2             5    8     1      -0.3702209793E-01       5    8    1        -0.2097547513E+01      0.2097566325E+01
          0                12           2             5    8     1      -0.2170767116E-01       5    8    1        -0.1229865750E+01      0.1229876786E+01
          0                13           2             5    8     1      -0.1272809232E-01       5    8    1        -0.7211114851E+00      0.7211179579E+00
          0                14           2             5    8     1      -0.7462957504E-02       5    8    1        -0.4228099828E+00      0.4228137787E+00
          0                15           1             5    8     1      -0.4375785356E-02       5    8    1        -0.2479052723E+00      0.2479074981E+00
          0                16           1             5    8     1      -0.2565655478E-02       5    8    1        -0.1453529219E+00      0.1453542271E+00
          0                17           1             5    8     1      -0.1504311892E-02       5    8    1        -0.8522344852E-01      0.8522421377E-01
          0                18           1             5    8     1      -0.8820122717E-03       5    8    1        -0.4996796851E-01      0.4996841718E-01
          0                19           1             5    8     1      -0.5171404785E-03       5    8    1        -0.2929688774E-01      0.2929715085E-01
          0                20           1             5    8     1      -0.3032072573E-03       5    8    1        -0.1717704514E-01      0.1717719944E-01
                                                   Max.-Head-Change                         Max.-Flux-Residual
  Residual-Control   Outer-Iter.   Inner-Iter.     Column Row Layer    Maximum-Head-Change  Column Row Layer    Maximum-Flux-Residual          L2-NORM 
          0                21           1             5    8     1      -0.1777738173E-03       5    8    1        -0.1007099980E-01      0.1007109028E-01
          0                22           1             5    8     1      -0.1042300983E-03       5    8    1        -0.5904646026E-02      0.5904699051E-02
          0                23           1             5    8     1      -0.6111047159E-04       5    8    1        -0.3461882250E-02      0.3461913344E-02

    ------------------------------------------------
       NWT REQUIRED           23 OUTER ITERATIONS 
       AND A TOTAL OF         37 INNER ITERATIONS.
    ------------------------------------------------

 NO OUTPUT CONTROL FOR STRESS PERIOD   20   TIME STEP   15
 
 SOLVING FOR HEAD 
                                                   Max.-Head-Change                         Max.-Flux-Residual
  Residual-Control   Outer-Iter.   Inner-Iter.     Column Row Layer    Maximum-Head-Change  Column Row Layer    Maximum-Flux-Residual          L2-NORM 
          0                 1           2             5    8     1       0.2198684113E+01       5    8    1         0.1210687915E+03      0.1329365096E+03
          0                 2           2             5    8     1       0.1214293567E+01       5    8    1         0.6700852803E+02      0.6837398855E+02
          0                 3           2             5    8     1       0.7448383293E+00       5    8    1         0.4100593946E+02      0.4223292489E+02
          0                 4           2             4    7     1      -0.1763720277E+01       4    7    1        -0.1000183551E+03      0.2347033239E+03
          0                 5           2             5    8     1      -0.7929926181E+00       5    8    1        -0.4494616524E+02      0.5023268818E+02
          0                 6           2             5    8     1      -0.4648454496E+00       5    8    1        -0.2634800777E+02      0.2639421011E+02
          0                 7           2             5    8     1      -0.2724966464E+00       5    8    1        -0.1544387521E+02      0.1544408586E+02
          0                 8           2             5    8     1      -0.1597423600E+00       5    8    1        -0.9053033825E+01      0.9053085204E+01
          0                 9           2             5    8     1      -0.9364435082E-01       5    8    1        -0.5306911114E+01      0.5306941369E+01
          0                10           2             5    8     1      -0.5489633885E-01       5    8    1        -0.3110955895E+01      0.3110973667E+01
                                                   Max.-Head-Change                         Max.-Flux-Residual
  Residual-Control   Outer-Iter.   Inner-Iter.     Column Row Layer    Maximum-Head-Change  Column Row Layer    Maximum-Flux-Residual          L2-NORM 
          0                11           2             5    8     1      -0.3218134392E-01       5    8    1        -0.1823674188E+01      0.1823684617E+01
          0                12           2             5    8     1      -0.1886527754E-01       5    8    1        -0.1069055513E+01      0.1069061630E+01
          0                13           2             5    8     1      -0.1105910537E-01       5    8    1        -0.6266886779E+00      0.6266922651E+00
          0                14           2             5    8     1      -0.6482974350E-02       5    8    1        -0.3673680856E+00      0.3673701889E+00
          0                15           1             5    8     1      -0.3800370741E-02       5    8    1        -0.2153518640E+00      0.2153530970E+00
          0                16           1             5    8     1      -0.2227793294E-02       5    8    1        -0.1262389206E+00      0.1262396434E+00
          0                17           1             5    8     1      -0.1305933401E-02       5    8    1        -0.7400059576E-01      0.7400101950E-01
          0                18           1             5    8     1      -0.7655337570E-03       5    8    1        -0.4337848652E-01      0.4337873491E-01
          0                19           1             5    8     1      -0.4487503742E-03       5    8    1        -0.2542791602E-01      0.2542806163E-01
          0                20           1             5    8     1      -0.2630525110E-03       5    8    1        -0.1490542320E-01      0.1490550856E-01
                                                   Max.-Head-Change                         Max.-Flux-Residual
  Residual-Control   Outer-Iter.   Inner-Iter.     Column Row Layer    Maximum-Head-Change  Column Row Layer    Maximum-Flux-Residual          L2-NORM 
          0                21           1             5    8     1      -0.1541974612E-03       5    8    1        -0.8737254967E-02      0.8737305008E-02
          0                22           1             5    8     1      -0.9038765845E-04       5    8    1        -0.5121566949E-02      0.5121596292E-02

    ------------------------------------------------
       NWT REQUIRED           22 OUTER ITERATIONS 
       AND A TOTAL OF         36 INNER ITERATIONS.
    ------------------------------------------------

 NO OUTPUT CONTROL FOR STRESS PERIOD   20   TIME STEP   16
 
 SOLVING FOR HEAD 
                                                   Max.-Head-Change                         Max.-Flux-Residual
  Residual-Control   Outer-Iter.   Inner-Iter.     Column Row Layer    Maximum-Head-Change  Column Row Layer    Maximum-Flux-Residual          L2-NORM 
          0                 1           2             5    8     1       0.2111053669E+01       5    8    1         0.1155459974E+03      0.1545941704E+03
          0                 2           2             5    8     1       0.1178829648E+01       5    8    1         0.6430638988E+02      0.8258895852E+02
          0                 3           2             5    8     1       0.6988012538E+00       5    8    1         0.3805447403E+02      0.5171703842E+02
          0                 4           2             4    7     1      -0.1759309647E+01       4    6    1        -0.9999963072E+02      0.2254563670E+03
          0                 5           2             4    8     1      -0.9786399878E+00       4    8    1        -0.5391260065E+02      0.9904616947E+02
          0                 6           2             4    8     1      -0.5922873726E+00       4    8    1        -0.3262661199E+02      0.5181750646E+02
          0                 7           2             5    6     1      -0.3191652601E+00       5    6    1        -0.1807062874E+02      0.2367960845E+02
          0                 8           2             5    8     1      -0.1582977962E+00       5    8    1        -0.8971059572E+01      0.1152012412E+02
          0                 9           2             5    8     1      -0.9279036987E-01       5    8    1        -0.5259074859E+01      0.5523430538E+01
          0                10           2             5    8     1      -0.5438861065E-01       5    8    1        -0.3082666172E+01      0.3107821774E+01
                                                   Max.-Head-Change                         Max.-Flux-Residual
  Residual-Control   Outer-Iter.   Inner-Iter.     Column Row Layer    Maximum-Head-Change  Column Row Layer    Maximum-Flux-Residual          L2-NORM 
          0                11           2             5    8     1      -0.3187885578E-01       5    8    1        -0.1806852664E+01      0.1809212720E+01
          0                12           2             5    8     1      -0.1868495266E-01       5    8    1        -0.1059033058E+01      0.1059256223E+01
          0                13           2             5    8     1      -0.1095159998E-01       5    8    1        -0.6207136394E+00      0.6207356669E+00
          0                14           1             5    8     1      -0.6418891884E-02       5    8    1        -0.3638057909E+00      0.3638084011E+00
          0                15           1             5    8     1      -0.3762180834E-02       5    8    1        -0.2132283695E+00      0.2132288991E+00
          0                16           1             5    8     1      -0.2205039840E-02       5    8    1        -0.1249733929E+00      0.1249736005E+00
          0                17           1             5    8     1      -0.1292380469E-02       5    8    1        -0.7324657955E-01      0.7324668933E-01
          0                18           1             5    8     1      -0.7574631240E-03       5    8    1        -0.4292935214E-01      0.4292941485E-01
          0                19           1             5    8     1      -0.4439456009E-03       5    8    1        -0.2516045543E-01      0.2516049190E-01
          0                20           1             5    8     1      -0.2601927347E-03       5    8    1        -0.1474618995E-01      0.1474621151E-01
                                                   Max.-Head-Change                         Max.-Flux-Residual
  Residual-Control   Outer-Iter.   Inner-Iter.     Column Row Layer    Maximum-Head-Change  Column Row Layer    Maximum-Flux-Residual          L2-NORM 
          0                21           1             5    8     1      -0.1524957412E-03       5    8    1        -0.8642478369E-02      0.8642492387E-02
          0                22           1             5    8     1      -0.8937527775E-04       5    8    1        -0.5065168809E-02      0.5065176586E-02

    ------------------------------------------------
       NWT REQUIRED           22 OUTER ITERATIONS 
       AND A TOTAL OF         35 INNER ITERATIONS.
    ------------------------------------------------

 NO OUTPUT CONTROL FOR STRESS PERIOD   20   TIME STEP   17
 
 SOLVING FOR HEAD 
                                                   Max.-Head-Change                         Max.-Flux-Residual
  Residual-Control   Outer-Iter.   Inner-Iter.     Column Row Layer    Maximum-Head-Change  Column Row Layer    Maximum-Flux-Residual          L2-NORM 
          0                 1           2             5    6     1       0.2239957277E+01       5    6    1         0.1221844667E+03      0.2110188137E+03
          0                 2           2             5    8     1       0.1161032517E+01       5    8    1         0.6256038704E+02      0.1131011439E+03
          0                 3           2             5    6     1       0.7104510564E+00       5    6    1         0.3863448006E+02      0.6686675028E+02
          0                 4           2             4    6     1      -0.1790927738E+01       4    7    1        -0.9996312990E+02      0.2153015611E+03
          0                 5           2             5    7     1      -0.9223345851E+00       5    7    1        -0.5095990784E+02      0.9601585289E+02
          0                 6           2             5    7     1      -0.5565167034E+00       5    7    1        -0.3073857289E+02      0.5597071284E+02
          0                 7           2             5    7     1      -0.3357872456E+00       5    7    1        -0.1854634337E+02      0.3375754022E+02
          0                 8           2             4    8     1      -0.1872867484E+00       4    8    1        -0.1030132671E+02      0.1773044654E+02
          0                 9           2             4    8     1      -0.1135056178E+00       4    8    1        -0.6244210461E+01      0.1029183517E+02
          0                10           2             4    8     1      -0.6877663144E-01       4    8    1        -0.3784183190E+01      0.6121696708E+01
                                                   Max.-Head-Change                         Max.-Flux-Residual
  Residual-Control   Outer-Iter.   Inner-Iter.     Column Row Layer    Maximum-Head-Change  Column Row Layer    Maximum-Flux-Residual          L2-NORM 
          0                11           2             4    8     1      -0.4166585995E-01       4    8    1        -0.2292872031E+01      0.3655040709E+01
          0                12           2             4    8     1      -0.2523705703E-01       4    8    1        -0.1389004637E+01      0.2183872810E+01
          0                13           2             4    8     1      -0.1528336867E-01       4    8    1        -0.8412923030E+00      0.1305301970E+01
          0                14           2             4    8     1      -0.9253895459E-02       4    8    1        -0.5094629289E+00      0.7804237317E+00
          0                15           2             4    8     1      -0.5602195153E-02       4    8    1        -0.3084634987E+00      0.4667527427E+00
          0                16           2             4    8     1      -0.3390962187E-02       4    8    1        -0.1867340358E+00      0.2792413413E+00
          0                17           2             4    8     1      -0.2052208764E-02       4    8    1        -0.1130250198E+00      0.1671116579E+00
          0                18           2             4    8     1      -0.1241814408E-02       4    8    1        -0.6840059634E-01      0.1000379753E+00
          0                19           2             4    8     1      -0.7513304370E-03       4    8    1        -0.4138872413E-01      0.5990329212E-01
          0                20           2             4    8     1      -0.4545135688E-03       4    8    1        -0.2504053442E-01      0.3588066715E-01
                                                   Max.-Head-Change                         Max.-Flux-Residual
  Residual-Control   Outer-Iter.   Inner-Iter.     Column Row Layer    Maximum-Head-Change  Column Row Layer    Maximum-Flux-Residual          L2-NORM 
          0                21           2             4    8     1      -0.2749201933E-03       4    8    1        -0.1514771013E-01      0.2149763284E-01
          0                22           2             4    8     1      -0.1662694930E-03       4    8    1        -0.9162089675E-02      0.1288360323E-01
          0                23           1             4    8     1      -0.1005465222E-03       4    8    1        -0.5541004015E-02      0.7723192377E-02
          0                24           1             4    8     1      -0.6079549025E-04       4    8    1        -0.3350662526E-02      0.4630900191E-02

    ------------------------------------------------
       NWT REQUIRED           24 OUTER ITERATIONS 
       AND A TOTAL OF         46 INNER ITERATIONS.
    ------------------------------------------------

 NO OUTPUT CONTROL FOR STRESS PERIOD   20   TIME STEP   18
 
 SOLVING FOR HEAD 
                                                   Max.-Head-Change                         Max.-Flux-Residual
  Residual-Control   Outer-Iter.   Inner-Iter.     Column Row Layer    Maximum-Head-Change  Column Row Layer    Maximum-Flux-Residual          L2-NORM 
          0                 1           2             5    6     1       0.2188964432E+01       5    6    1         0.1180474993E+03      0.2456172276E+03
          0                 2           2             4    8     1       0.1245311514E+01       5    6    1         0.6696201202E+02      0.1346354384E+03
          0                 3           2             4    8     1       0.7844390770E+00       5    6    1         0.4210853639E+02      0.7916997783E+02
          0                 4           2             4    7     1      -0.1713366532E+01       4    7    1        -0.9225594788E+02      0.2047956981E+03
          0                 5           2             5    7     1      -0.8796348478E+00       5    7    1        -0.4795535914E+02      0.1059837801E+03
          0                 6           2             5    7     1      -0.5313686138E+00       5    7    1        -0.2935979287E+02      0.6022762723E+02
          0                 7           2             5    7     1      -0.3210545200E+00       5    7    1        -0.1770896218E+02      0.3642558002E+02
          0                 8           2             5    7     1      -0.1940109173E+00       5    7    1        -0.1070040872E+02      0.2207395856E+02
          0                 9           2             5    7     1      -0.1172555036E+00       5    7    1        -0.6466120481E+01      0.1337657126E+02
          0                10           2             5    7     1      -0.7087536594E-01       5    7    1        -0.3907944275E+01      0.8106135182E+01
                                                   Max.-Head-Change                         Max.-Flux-Residual
  Residual-Control   Outer-Iter.   Inner-Iter.     Column Row Layer    Maximum-Head-Change  Column Row Layer    Maximum-Flux-Residual          L2-NORM 
          0                11           2             5    6     1      -0.4136484309E-01       5    6    1        -0.2277307784E+01      0.4821700655E+01
          0                12           2             5    6     1      -0.2483926662E-01       5    6    1        -0.1378902235E+01      0.2662497982E+01
          0                13           2             5    6     1      -0.1485557603E-01       5    6    1        -0.8272082359E+00      0.1579762408E+01
          0                14           2             5    6     1      -0.8871883025E-02       5    6    1        -0.4945412067E+00      0.9482692123E+00
          0                15           2             4    6     1      -0.5332811471E-02       5    6    1        -0.2953025989E+00      0.5701335086E+00
          0                16           2             4    6     1      -0.3223507634E-02       4    6    1        -0.1777269197E+00      0.3428656135E+00
          0                17           2             4    6     1      -0.1948086758E-02       4    6    1        -0.1074259580E+00      0.2062078865E+00
          0                18           2             4    6     1      -0.1177061234E-02       4    6    1        -0.6491914202E-01      0.1240273649E+00
          0                19           2             4    6     1      -0.7110576815E-03       4    6    1        -0.3922363888E-01      0.7460392947E-01
          0                20           2             4    6     1      -0.4294664722E-03       4    6    1        -0.2369400069E-01      0.4487839950E-01
                                                   Max.-Head-Change                         Max.-Flux-Residual
  Residual-Control   Outer-Iter.   Inner-Iter.     Column Row Layer    Maximum-Head-Change  Column Row Layer    Maximum-Flux-Residual          L2-NORM 
          0                21           2             4    8     1      -0.2596502025E-03       4    6    1        -0.1431027381E-01      0.2699871248E-01
          0                22           2             4    8     1      -0.1572238400E-03       4    8    1        -0.8654194469E-02      0.1624340197E-01
          0                23           1             4    8     1      -0.9518638918E-04       4    8    1        -0.5240130384E-02      0.9773211903E-02

    ------------------------------------------------
       NWT REQUIRED           23 OUTER ITERATIONS 
       AND A TOTAL OF         45 INNER ITERATIONS.
    ------------------------------------------------

 NO OUTPUT CONTROL FOR STRESS PERIOD   20   TIME STEP   19
 
 SOLVING FOR HEAD 
                                                   Max.-Head-Change                         Max.-Flux-Residual
  Residual-Control   Outer-Iter.   Inner-Iter.     Column Row Layer    Maximum-Head-Change  Column Row Layer    Maximum-Flux-Residual          L2-NORM 
          0                 1           2             4    6     1       0.2248269829E+01       4    6    1         0.1199405289E+03      0.2675926183E+03
          0                 2           2             4    6     1       0.1294265153E+01       4    6    1         0.6897722957E+02      0.1485849337E+03
          0                 3           2             5    7     1       0.7815376760E+00       5    7    1         0.4163421033E+02      0.8418305327E+02
          0                 4           2             4    7     1      -0.1582118383E+01       4    7    1        -0.8512415451E+02      0.1990091393E+03
          0                 5           2             5    7     1      -0.8551202842E+00       5    7    1        -0.4647673629E+02      0.1048541867E+03
          0                 6           2             5    7     1      -0.5233985667E+00       5    7    1        -0.2855122732E+02      0.6152696555E+02
          0                 7           2             5    7     1      -0.3202694252E+00       5    7    1        -0.1746793706E+02      0.3777139673E+02
          0                 8           2             5    7     1      -0.1960007562E+00       5    7    1        -0.1068863520E+02      0.2319065273E+02
          0                 9           2             5    7     1      -0.1199656229E+00       5    7    1        -0.6541281071E+01      0.1424003838E+02
          0                10           2             4    7     1      -0.7401184253E-01       5    7    1        -0.4003690327E+01      0.8744876666E+01
                                                   Max.-Head-Change                         Max.-Flux-Residual
  Residual-Control   Outer-Iter.   Inner-Iter.     Column Row Layer    Maximum-Head-Change  Column Row Layer    Maximum-Flux-Residual          L2-NORM 
          0                11           2             4    7     1      -0.4596107973E-01       4    7    1        -0.2473786055E+01      0.5370776257E+01
          0                12           2             4    7     1      -0.2852824119E-01       4    7    1        -0.1536111892E+01      0.3298815996E+01
          0                13           2             4    7     1      -0.1769973444E-01       4    7    1        -0.9534119708E+00      0.2026347221E+01
          0                14           2             4    7     1      -0.1097680487E-01       4    7    1        -0.5914887554E+00      0.1244806049E+01
          0                15           2             4    7     1      -0.6804752717E-02       4    7    1        -0.3668013297E+00      0.7647492808E+00
          0                16           2             4    7     1      -0.4216820266E-02       4    7    1        -0.2273754212E+00      0.4698548557E+00
          0                17           2             4    7     1      -0.2612177647E-02       4    7    1        -0.1408942912E+00      0.2886911525E+00
          0                18           2             4    7     1      -0.1617607649E-02       4    7    1        -0.8727483053E-01      0.1773888635E+00
          0                19           2             4    7     1      -0.1001391784E-02       4    7    1        -0.5404285713E-01      0.1090035145E+00
          0                20           2             4    7     1      -0.6197295756E-03       4    7    1        -0.3345404908E-01      0.6698448205E-01
                                                   Max.-Head-Change                         Max.-Flux-Residual
  Residual-Control   Outer-Iter.   Inner-Iter.     Column Row Layer    Maximum-Head-Change  Column Row Layer    Maximum-Flux-Residual          L2-NORM 
          0                21           2             4    7     1      -0.3834196570E-03       4    7    1        -0.2070270767E-01      0.4116478593E-01
          0                22           2             4    7     1      -0.2371519314E-03       4    7    1        -0.1280796771E-01      0.2529845441E-01
          0                23           2             4    7     1      -0.1466442089E-03       4    7    1        -0.7921620989E-02      0.1554809575E-01
          0                24           1             4    7     1      -0.9065559311E-04       4    7    1        -0.4898176577E-02      0.9555957975E-02

    ------------------------------------------------
       NWT REQUIRED           24 OUTER ITERATIONS 
       AND A TOTAL OF         47 INNER ITERATIONS.
    ------------------------------------------------

 NO OUTPUT CONTROL FOR STRESS PERIOD   20   TIME STEP   20
 
 SOLVING FOR HEAD 
                                                   Max.-Head-Change                         Max.-Flux-Residual
  Residual-Control   Outer-Iter.   Inner-Iter.     Column Row Layer    Maximum-Head-Change  Column Row Layer    Maximum-Flux-Residual          L2-NORM 
          0                 1           2             4    6     1       0.2204006178E+01       4    6    1         0.1170048230E+03      0.2771657729E+03
          0                 2           2             4    7     1       0.1249576973E+01       5    7    1         0.6549253428E+02      0.1527058612E+03
          0                 3           2             5    7     1       0.7907939259E+00       5    7    1         0.4205583870E+02      0.8635465088E+02
          0                 4           2             5    6     1      -0.1502251135E+01       5    6    1        -0.8273960441E+02      0.1949222801E+03
          0                 5           2             4    7     1      -0.9153616372E+00       4    7    1        -0.4921030581E+02      0.1131252571E+03
          0                 6           2             5    7     1      -0.5139394519E+00       5    7    1        -0.2814717954E+02      0.5549388859E+02
          0                 7           2             5    7     1      -0.3131466337E+00       5    7    1        -0.1714452448E+02      0.3401836882E+02
          0                 8           2             5    7     1      -0.1908643579E+00       5    7    1        -0.1044640349E+02      0.2085823420E+02
          0                 9           2             5    7     1      -0.1163687615E+00       5    7    1        -0.6367221886E+01      0.1279178070E+02
          0                10           2             5    7     1      -0.7097028865E-01       5    7    1        -0.3882109503E+01      0.7846339836E+01
                                                   Max.-Head-Change                         Max.-Flux-Residual
  Residual-Control   Outer-Iter.   Inner-Iter.     Column Row Layer    Maximum-Head-Change  Column Row Layer    Maximum-Flux-Residual          L2-NORM 
          0                11           2             5    7     1      -0.4329522632E-01       5    7    1        -0.2367631129E+01      0.4813708416E+01
          0                12           2             5    7     1      -0.2641933402E-01       5    7    1        -0.1444386194E+01      0.2953679726E+01
          0                13           2             5    7     1      -0.1612566261E-01       5    7    1        -0.8813952304E+00      0.1812645176E+01
          0                14           2             5    7     1      -0.9845160891E-02       5    7    1        -0.5379867128E+00      0.1112559283E+01
          0                15           2             5    7     1      -0.6012201317E-02       5    7    1        -0.3284593034E+00      0.6829517375E+00
          0                16           2             5    7     1      -0.3672364183E-02       5    7    1        -0.2005841669E+00      0.4192848677E+00
          0                17           2             5    7     1      -0.2243653317E-02       5    7    1        -0.1225216630E+00      0.2574404595E+00
          0                18           2             5    7     1      -0.1371070984E-02       5    7    1        -0.7485598433E-01      0.1580844801E+00
          0                19           2             5    7     1      -0.8380208971E-03       5    7    1        -0.4574398404E-01      0.9708298424E-01
          0                20           2             4    7     1      -0.5171207887E-03       5    7    1        -0.2795965562E-01      0.5962594959E-01
                                                   Max.-Head-Change                         Max.-Flux-Residual
  Residual-Control   Outer-Iter.   Inner-Iter.     Column Row Layer    Maximum-Head-Change  Column Row Layer    Maximum-Flux-Residual          L2-NORM 
          0                21           2             4    7     1      -0.3208048698E-03       4    7    1        -0.1727997851E-01      0.3662375617E-01
          0                22           2             4    7     1      -0.1989310591E-03       4    7    1        -0.1071928445E-01      0.2249692300E-01
          0                23           2             4    7     1      -0.1233069427E-03       4    7    1        -0.6646640999E-02      0.1382017331E-01
          0                24           1             4    7     1      -0.7640215432E-04       4    7    1        -0.4119675414E-02      0.8490468008E-02

    ------------------------------------------------
       NWT REQUIRED           24 OUTER ITERATIONS 
       AND A TOTAL OF         47 INNER ITERATIONS.
    ------------------------------------------------

 NO OUTPUT CONTROL FOR STRESS PERIOD   20   TIME STEP   21
 
 SOLVING FOR HEAD 
                                                   Max.-Head-Change                         Max.-Flux-Residual
  Residual-Control   Outer-Iter.   Inner-Iter.     Column Row Layer    Maximum-Head-Change  Column Row Layer    Maximum-Flux-Residual          L2-NORM 
          0                 1           2             4    6     1       0.2178843485E+01       4    6    1         0.1156360124E+03      0.2749783990E+03
          0                 2           2             5    7     1       0.1226189224E+01       5    7    1         0.6497752283E+02      0.1426441673E+03
          0                 3           2             5    7     1       0.7833397266E+00       5    7    1         0.4165577762E+02      0.8776723380E+02
          0                 4           2             5    7     1      -0.1562560418E+01       5    7    1        -0.8493560309E+02      0.1962374821E+03
          0                 5           2             4    7     1      -0.8960221365E+00       5    8    1        -0.4862945466E+02      0.1124858062E+03
          0                 6           2             4    6     1      -0.5339552961E+00       4    6    1        -0.2920470540E+02      0.5894726597E+02
          0                 7           2             5    7     1      -0.2917492483E+00       5    7    1        -0.1597042729E+02      0.3058009452E+02
          0                 8           2             5    7     1      -0.1778300161E+00       5    7    1        -0.9732774163E+01      0.1871823469E+02
          0                 9           2             5    7     1      -0.1084109434E+00       5    7    1        -0.5932411569E+01      0.1146113238E+02
          0                10           2             5    7     1      -0.6610185980E-01       5    7    1        -0.3616590307E+01      0.7019689190E+01
                                                   Max.-Head-Change                         Max.-Flux-Residual
  Residual-Control   Outer-Iter.   Inner-Iter.     Column Row Layer    Maximum-Head-Change  Column Row Layer    Maximum-Flux-Residual          L2-NORM 
          0                11           2             5    7     1      -0.4031129183E-01       5    7    1        -0.2205160888E+01      0.4300581737E+01
          0                12           2             5    7     1      -0.2458738207E-01       5    7    1        -0.1344788539E+01      0.2635405248E+01
          0                13           2             5    7     1      -0.1499928101E-01       5    7    1        -0.8202390135E+00      0.1615365937E+01
          0                14           2             5    7     1      -0.9151686878E-02       5    7    1        -0.5003795175E+00      0.9903544658E+00
          0                15           2             5    7     1      -0.5584757496E-02       5    7    1        -0.3053031190E+00      0.6072954021E+00
          0                16           2             5    7     1      -0.3408629090E-02       5    7    1        -0.1863096881E+00      0.3724711796E+00
          0                17           2             5    7     1      -0.2080784653E-02       5    7    1        -0.1137134656E+00      0.2284877194E+00
          0                18           2             5    7     1      -0.1270416418E-02       5    7    1        -0.6941611405E-01      0.1401861407E+00
          0                19           2             5    7     1      -0.7757756559E-03       5    7    1        -0.4238188210E-01      0.8602292268E-01
          0                20           2             5    7     1      -0.4738018069E-03       5    7    1        -0.2588041417E-01      0.5279410129E-01
                                                   Max.-Head-Change                         Max.-Flux-Residual
  Residual-Control   Outer-Iter.   Inner-Iter.     Column Row Layer    Maximum-Head-Change  Column Row Layer    Maximum-Flux-Residual          L2-NORM 
          0                21           2             5    7     1      -0.2894190699E-03       5    7    1        -0.1580638900E-01      0.3240516294E-01
          0                22           2             5    7     1      -0.1768180966E-03       5    7    1        -0.9655258555E-02      0.1989282305E-01
          0                23           2             5    7     1      -0.1080424993E-03       5    7    1        -0.5898807370E-02      0.1221316177E-01
          0                24           1             5    7     1      -0.6602835741E-04       5    7    1        -0.3604398346E-02      0.7499039112E-02

    ------------------------------------------------
       NWT REQUIRED           24 OUTER ITERATIONS 
       AND A TOTAL OF         47 INNER ITERATIONS.
    ------------------------------------------------

 NO OUTPUT CONTROL FOR STRESS PERIOD   20   TIME STEP   22
 
 SOLVING FOR HEAD 
                                                   Max.-Head-Change                         Max.-Flux-Residual
  Residual-Control   Outer-Iter.   Inner-Iter.     Column Row Layer    Maximum-Head-Change  Column Row Layer    Maximum-Flux-Residual          L2-NORM 
          0                 1           2             4    7     1       0.2156205592E+01       4    6    1         0.1144000703E+03      0.2729655311E+03
          0                 2           2             5    7     1       0.1216034626E+01       5    7    1         0.6450661948E+02      0.1390695861E+03
          0                 3           2             4    7     1       0.7098017715E+00       4    7    1         0.3711748976E+02      0.8466911063E+02
          0                 4           2             5    7     1      -0.1508512599E+01       5    7    1        -0.8187864455E+02      0.1947639404E+03
          0                 5           2             4    7     1      -0.8968100433E+00       5    8    1        -0.4869890439E+02      0.1153311547E+03
          0                 6           2             4    7     1      -0.5563606926E+00       4    7    1        -0.2998057930E+02      0.6400165746E+02
          0                 7           2             4    6     1      -0.3269484758E+00       4    6    1        -0.1793672854E+02      0.3272757815E+02
          0                 8           2             5    7     1      -0.1707718001E+00       5    7    1        -0.9423326115E+01      0.1670781389E+02
          0                 9           2             5    7     1      -0.1031986440E+00       5    7    1        -0.5691589818E+01      0.9406326927E+01
          0                10           2             5    7     1      -0.6239141674E-01       5    7    1        -0.3439605600E+01      0.5646977941E+01
                                                   Max.-Head-Change                         Max.-Flux-Residual
  Residual-Control   Outer-Iter.   Inner-Iter.     Column Row Layer    Maximum-Head-Change  Column Row Layer    Maximum-Flux-Residual          L2-NORM 
          0                11           2             5    7     1      -0.3773457684E-01       5    7    1        -0.2079560097E+01      0.3426605837E+01
          0                12           2             5    7     1      -0.2282985601E-01       5    7    1        -0.1257754268E+01      0.2082998387E+01
          0                13           2             5    7     1      -0.1381678712E-01       5    7    1        -0.7609708575E+00      0.1266860901E+01
          0                14           2             5    7     1      -0.8364592375E-02       5    7    1        -0.4605531294E+00      0.7707434041E+00
          0                15           2             5    7     1      -0.5065368381E-02       5    7    1        -0.2788205107E+00      0.4690520420E+00
          0                16           2             5    7     1      -0.3068323139E-02       5    7    1        -0.1688487113E+00      0.2855339680E+00
          0                17           2             5    7     1      -0.1859133430E-02       5    7    1        -0.1022808043E+00      0.1738660384E+00
          0                18           2             5    7     1      -0.1126769966E-02       5    7    1        -0.6197399433E-01      0.1058976158E+00
          0                19           2             5    7     1      -0.6830794610E-03       5    7    1        -0.3756121745E-01      0.6451581396E-01
          0                20           2             5    7     1      -0.4142043439E-03       5    7    1        -0.2277092596E-01      0.3931416002E-01
                                                   Max.-Head-Change                         Max.-Flux-Residual
  Residual-Control   Outer-Iter.   Inner-Iter.     Column Row Layer    Maximum-Head-Change  Column Row Layer    Maximum-Flux-Residual          L2-NORM 
          0                21           2             5    7     1      -0.2512244380E-03       5    7    1        -0.1380793683E-01      0.2396233259E-01
          0                22           2             5    7     1      -0.1524085864E-03       5    7    1        -0.8374913510E-02      0.1460834894E-01
          0                23           1             5    7     1      -0.9248141698E-04       5    7    1        -0.5080796808E-02      0.8907586581E-02

    ------------------------------------------------
       NWT REQUIRED           23 OUTER ITERATIONS 
       AND A TOTAL OF         45 INNER ITERATIONS.
    ------------------------------------------------

 NO OUTPUT CONTROL FOR STRESS PERIOD   20   TIME STEP   23
 
 SOLVING FOR HEAD 
                                                   Max.-Head-Change                         Max.-Flux-Residual
  Residual-Control   Outer-Iter.   Inner-Iter.     Column Row Layer    Maximum-Head-Change  Column Row Layer    Maximum-Flux-Residual          L2-NORM 
          0                 1           2             4    7     1       0.2148103816E+01       4    6    1         0.1135975420E+03      0.2711713554E+03
          0                 2           2             5    7     1       0.1206313375E+01       5    7    1         0.6406882572E+02      0.1370312916E+03
          0                 3           2             4    6     1       0.7093530706E+00       4    6    1         0.3760607669E+02      0.8470521423E+02
          0                 4           2             5    7     1      -0.1493151406E+01       5    7    1        -0.8102163876E+02      0.1938046204E+03
          0                 5           2             4    7     1      -0.8973912626E+00       5    8    1        -0.4875746825E+02      0.1150338839E+03
          0                 6           2             4    7     1      -0.5576400788E+00       4    7    1        -0.2999901966E+02      0.6714874845E+02
          0                 7           2             4    7     1      -0.3447233203E+00       4    7    1        -0.1864020885E+02      0.3528072825E+02
          0                 8           2             4    7     1      -0.2032429672E+00       4    7    1        -0.1100744394E+02      0.2031539903E+02
          0                 9           2             4    6     1      -0.1201886368E+00       4    6    1        -0.6623348780E+01      0.1080828004E+02
          0                10           2             4    6     1      -0.7248735818E-01       4    6    1        -0.4006242430E+01      0.6394633763E+01
                                                   Max.-Head-Change                         Max.-Flux-Residual
  Residual-Control   Outer-Iter.   Inner-Iter.     Column Row Layer    Maximum-Head-Change  Column Row Layer    Maximum-Flux-Residual          L2-NORM 
          0                11           2             4    6     1      -0.4365850581E-01       4    6    1        -0.2415360131E+01      0.3854847828E+01
          0                12           2             4    6     1      -0.2445818366E-01       4    6    1        -0.1352307165E+01      0.2267737734E+01
          0                13           2             5    7     1      -0.1346612834E-01       5    7    1        -0.7475720788E+00      0.1150451024E+01
          0                14           2             5    7     1      -0.8077934689E-02       5    7    1        -0.4484503137E+00      0.6708081292E+00
          0                15           2             5    7     1      -0.4845938003E-02       5    7    1        -0.2690072880E+00      0.4018857754E+00
          0                16           2             5    7     1      -0.2907350132E-02       5    7    1        -0.1613754426E+00      0.2418052426E+00
          0                17           2             5    7     1      -0.1744495166E-02       5    7    1        -0.9681775331E-01      0.1455894375E+00
          0                18           2             5    7     1      -0.1046886509E-02       5    7    1        -0.5809336907E-01      0.8767474677E-01
          0                19           2             5    7     1      -0.6283301191E-03       5    7    1        -0.3486229245E-01      0.5280483763E-01
          0                20           2             5    7     1      -0.3771672690E-03       5    7    1        -0.2092395836E-01      0.3180722724E-01
                                                   Max.-Head-Change                         Max.-Flux-Residual
  Residual-Control   Outer-Iter.   Inner-Iter.     Column Row Layer    Maximum-Head-Change  Column Row Layer    Maximum-Flux-Residual          L2-NORM 
          0                21           2             5    7     1      -0.2264313888E-03       5    7    1        -0.1255999669E-01      0.1916154911E-01
          0                22           2             5    7     1      -0.1359546767E-03       5    7    1        -0.7540351196E-02      0.1154482194E-01
          0                23           1             5    7     1      -0.8164043703E-04       5    7    1        -0.4527394522E-02      0.6956557220E-02

    ------------------------------------------------
       NWT REQUIRED           23 OUTER ITERATIONS 
       AND A TOTAL OF         45 INNER ITERATIONS.
    ------------------------------------------------

 NO OUTPUT CONTROL FOR STRESS PERIOD   20   TIME STEP   24
 
 SOLVING FOR HEAD 
                                                   Max.-Head-Change                         Max.-Flux-Residual
  Residual-Control   Outer-Iter.   Inner-Iter.     Column Row Layer    Maximum-Head-Change  Column Row Layer    Maximum-Flux-Residual          L2-NORM 
          0                 1           2             4    7     1       0.2145478766E+01       4    6    1         0.1132106329E+03      0.2696356674E+03
          0                 2           2             4    6     1       0.1217160020E+01       4    6    1         0.6464894081E+02      0.1395260442E+03
          0                 3           2             4    6     1       0.7786113729E+00       4    6    1         0.4135301991E+02      0.8748553627E+02
          0                 4           2             5    7     1      -0.1483091541E+01       5    8    1        -0.8063467156E+02      0.1923009329E+03
          0                 5           2             4    8     1      -0.8954959343E+00       5    8    1        -0.4880457520E+02      0.1172022442E+03
          0                 6           2             4    8     1      -0.5507613771E+00       4    8    1        -0.2990322605E+02      0.6836128485E+02
          0                 7           2             4    7     1      -0.3403501796E+00       4    8    1        -0.1839083444E+02      0.3784662873E+02
          0                 8           2             4    7     1      -0.2096038402E+00       4    7    1        -0.1137426548E+02      0.1933877505E+02
          0                 9           2             4    7     1      -0.1285487102E+00       4    7    1        -0.6999282561E+01      0.1133115413E+02
          0                10           2             4    7     1      -0.7869884946E-01       4    7    1        -0.4290881862E+01      0.6890130668E+01
                                                   Max.-Head-Change                         Max.-Flux-Residual
  Residual-Control   Outer-Iter.   Inner-Iter.     Column Row Layer    Maximum-Head-Change  Column Row Layer    Maximum-Flux-Residual          L2-NORM 
          0                11           2             4    7     1      -0.4814421528E-01       4    7    1        -0.2626464210E+01      0.4209705883E+01
          0                12           2             4    7     1      -0.2944222229E-01       4    7    1        -0.1606612485E+01      0.2573544460E+01
          0                13           2             4    7     1      -0.1800191765E-01       4    7    1        -0.9824654806E+00      0.1573496776E+01
          0                14           2             4    7     1      -0.1100572533E-01       4    7    1        -0.6006916472E+00      0.9621182050E+00
          0                15           2             4    7     1      -0.6727971714E-02       4    7    1        -0.3672318664E+00      0.5883227963E+00
          0                16           2             4    7     1      -0.4112658378E-02       4    7    1        -0.2244894937E+00      0.3597705783E+00
          0                17           2             4    7     1      -0.2513846886E-02       4    7    1        -0.1372225204E+00      0.2200169850E+00
          0                18           2             4    7     1      -0.1536512948E-02       4    7    1        -0.8387507872E-01      0.1345566586E+00
          0                19           2             4    7     1      -0.9391127463E-03       4    7    1        -0.5126512982E-01      0.8229444789E-01
          0                20           2             4    7     1      -0.5739656083E-03       4    7    1        -0.3133253878E-01      0.5033271468E-01
                                                   Max.-Head-Change                         Max.-Flux-Residual
  Residual-Control   Outer-Iter.   Inner-Iter.     Column Row Layer    Maximum-Head-Change  Column Row Layer    Maximum-Flux-Residual          L2-NORM 
          0                21           2             4    7     1      -0.3507865027E-03       4    7    1        -0.1914943621E-01      0.3078526966E-01
          0                22           2             4    7     1      -0.2143832106E-03       4    7    1        -0.1170322345E-01      0.1882984973E-01
          0                23           2             4    7     1      -0.1310181271E-03       4    7    1        -0.7152306211E-02      0.1151756553E-01
          0                24           1             4    7     1      -0.8006936253E-04       4    7    1        -0.4370987961E-02      0.7045037111E-02

    ------------------------------------------------
       NWT REQUIRED           24 OUTER ITERATIONS 
       AND A TOTAL OF         47 INNER ITERATIONS.
    ------------------------------------------------

 NO OUTPUT CONTROL FOR STRESS PERIOD   20   TIME STEP   25
 
 SOLVING FOR HEAD 
                                                   Max.-Head-Change                         Max.-Flux-Residual
  Residual-Control   Outer-Iter.   Inner-Iter.     Column Row Layer    Maximum-Head-Change  Column Row Layer    Maximum-Flux-Residual          L2-NORM 
          0                 1           2             4    7     1       0.2149259097E+01       4    7    1         0.1122774805E+03      0.2681247444E+03
          0                 2           2             4    7     1       0.1259513298E+01       4    7    1         0.6606302038E+02      0.1393210098E+03
          0                 3           2             4    7     1       0.8157155387E+00       4    7    1         0.4278731708E+02      0.9027970899E+02
          0                 4           2             5    8     1      -0.1464874491E+01       5    8    1        -0.8071639069E+02      0.1908999166E+03
          0                 5           2             5    7     1      -0.8946686668E+00       5    8    1        -0.4883333274E+02      0.1168412914E+03
          0                 6           2             4    8     1      -0.5479451358E+00       4    8    1        -0.2975526859E+02      0.6809880370E+02
          0                 7           2             4    8     1      -0.3368753720E+00       4    8    1        -0.1829645816E+02      0.4004395179E+02
          0                 8           2             4    8     1      -0.2057372837E+00       4    8    1        -0.1124819951E+02      0.2155788400E+02
          0                 9           2             4    7     1      -0.1267917288E+00       4    7    1        -0.6873244778E+01      0.1145146110E+02
          0                10           2             4    7     1      -0.7776699049E-01       4    7    1        -0.4234365227E+01      0.6591161340E+01
                                                   Max.-Head-Change                         Max.-Flux-Residual
  Residual-Control   Outer-Iter.   Inner-Iter.     Column Row Layer    Maximum-Head-Change  Column Row Layer    Maximum-Flux-Residual          L2-NORM 
          0                11           2             4    7     1      -0.4758586215E-01       4    7    1        -0.2595765997E+01      0.3979778238E+01
          0                12           2             4    7     1      -0.2908771772E-01       4    7    1        -0.1587996713E+01      0.2422321053E+01
          0                13           2             4    7     1      -0.1777126997E-01       4    7    1        -0.9705848988E+00      0.1476383514E+01
          0                14           2             4    7     1      -0.1085421375E-01       4    7    1        -0.5929458019E+00      0.9001787430E+00
          0                15           2             4    7     1      -0.6628121823E-02       4    7    1        -0.3621396256E+00      0.5489800016E+00
          0                16           2             4    7     1      -0.4046829003E-02       4    7    1        -0.2211327570E+00      0.3348645255E+00
          0                17           2             4    7     1      -0.2470489177E-02       4    7    1        -0.1350094783E+00      0.2042955165E+00
          0                18           2             4    7     1      -0.1508004362E-02       4    7    1        -0.8241765974E-01      0.1246574571E+00
          0                19           2             4    7     1      -0.9204069432E-03       4    7    1        -0.5030702252E-01      0.7607472541E-01
          0                20           2             4    7     1      -0.5617201590E-03       4    7    1        -0.3070401793E-01      0.4643214125E-01
                                                   Max.-Head-Change                         Max.-Flux-Residual
  Residual-Control   Outer-Iter.   Inner-Iter.     Column Row Layer    Maximum-Head-Change  Column Row Layer    Maximum-Flux-Residual          L2-NORM 
          0                21           2             4    7     1      -0.3427895489E-03       4    7    1        -0.1873808357E-01      0.2834309707E-01
          0                22           2             4    7     1      -0.2091735338E-03       4    7    1        -0.1143465429E-01      0.1730297780E-01
          0                23           2             4    7     1      -0.1276325034E-03       4    7    1        -0.6977388904E-02      0.1056415067E-01
          0                24           1             4    7     1      -0.7787439672E-04       4    7    1        -0.4257342605E-02      0.6450364467E-02

    ------------------------------------------------
       NWT REQUIRED           24 OUTER ITERATIONS 
       AND A TOTAL OF         47 INNER ITERATIONS.
    ------------------------------------------------

 NO OUTPUT CONTROL FOR STRESS PERIOD   20   TIME STEP   26
 
 SOLVING FOR HEAD 
                                                   Max.-Head-Change                         Max.-Flux-Residual
  Residual-Control   Outer-Iter.   Inner-Iter.     Column Row Layer    Maximum-Head-Change  Column Row Layer    Maximum-Flux-Residual          L2-NORM 
          0                 1           2             4    7     1       0.2137388478E+01       4    7    1         0.1116552969E+03      0.2667865752E+03
          0                 2           2             4    7     1       0.1253135938E+01       4    7    1         0.6568375754E+02      0.1408596875E+03
          0                 3           2             4    7     1       0.8124141747E+00       4    7    1         0.4258819051E+02      0.9120993249E+02
          0                 4           2             4    6     1      -0.1562210031E+01       4    6    1        -0.8518285415E+02      0.1955910955E+03
          0                 5           2             5    7     1      -0.8958396342E+00       5    7    1        -0.4861840703E+02      0.1145531185E+03
          0                 6           2             4    8     1      -0.5391282534E+00       5    6    1        -0.2939781587E+02      0.6843402226E+02
          0                 7           2             4    8     1      -0.3314578979E+00       4    8    1        -0.1800215687E+02      0.4022471125E+02
          0                 8           2             4    8     1      -0.2035448283E+00       4    8    1        -0.1106731584E+02      0.2287316062E+02
          0                 9           2             4    8     1      -0.1240225517E+00       4    8    1        -0.6795339072E+01      0.1234103803E+02
          0                10           2             4    7     1      -0.7637943661E-01       4    8    1        -0.4136786718E+01      0.7375225541E+01
                                                   Max.-Head-Change                         Max.-Flux-Residual
  Residual-Control   Outer-Iter.   Inner-Iter.     Column Row Layer    Maximum-Head-Change  Column Row Layer    Maximum-Flux-Residual          L2-NORM 
          0                11           2             4    7     1      -0.4717527628E-01       4    7    1        -0.2551572321E+01      0.4482532833E+01
          0                12           2             4    7     1      -0.2900453146E-01       4    7    1        -0.1575822220E+01      0.2476299712E+01
          0                13           2             4    7     1      -0.1773920277E-01       4    7    1        -0.9683445167E+00      0.1403216719E+01
          0                14           2             4    7     1      -0.1082253127E-01       4    7    1        -0.5919102831E+00      0.8425715727E+00
          0                15           2             4    7     1      -0.6595754875E-02       4    7    1        -0.3610338704E+00      0.5107653553E+00
          0                16           2             4    7     1      -0.4017744841E-02       4    7    1        -0.2200064539E+00      0.3100498681E+00
          0                17           2             4    7     1      -0.2446687741E-02       4    7    1        -0.1340067190E+00      0.1882414869E+00
          0                18           2             4    7     1      -0.1489678291E-02       4    7    1        -0.8160272828E-01      0.1142892416E+00
          0                19           2             4    7     1      -0.9068621503E-03       4    7    1        -0.4968257359E-01      0.6938988753E-01
          0                20           2             4    7     1      -0.5519924995E-03       4    7    1        -0.3024404650E-01      0.4212973548E-01
                                                   Max.-Head-Change                         Max.-Flux-Residual
  Residual-Control   Outer-Iter.   Inner-Iter.     Column Row Layer    Maximum-Head-Change  Column Row Layer    Maximum-Flux-Residual          L2-NORM 
          0                21           2             4    7     1      -0.3359486611E-03       4    7    1        -0.1840855065E-01      0.2557899939E-01
          0                22           2             4    7     1      -0.2044389985E-03       4    7    1        -0.1120334189E-01      0.1553032870E-01
          0                23           1             4    7     1      -0.1243965304E-03       4    7    1        -0.6817529014E-02      0.9429306800E-02
          0                24           1             4    7     1      -0.7568481617E-04       4    7    1        -0.4148206380E-02      0.5725066874E-02

    ------------------------------------------------
       NWT REQUIRED           24 OUTER ITERATIONS 
       AND A TOTAL OF         46 INNER ITERATIONS.
    ------------------------------------------------

 NO OUTPUT CONTROL FOR STRESS PERIOD   20   TIME STEP   27
 
 SOLVING FOR HEAD 
                                                   Max.-Head-Change                         Max.-Flux-Residual
  Residual-Control   Outer-Iter.   Inner-Iter.     Column Row Layer    Maximum-Head-Change  Column Row Layer    Maximum-Flux-Residual          L2-NORM 
          0                 1           2             4    7     1       0.2125733735E+01       4    7    1         0.1110460531E+03      0.2656339375E+03
          0                 2           2             4    7     1       0.1246883539E+01       4    7    1         0.6531122209E+02      0.1436756604E+03
          0                 3           2             4    7     1       0.8078855496E+00       4    7    1         0.4239305972E+02      0.9071410054E+02
          0                 4           2             4    7     1      -0.1564444308E+01       4    7    1        -0.8409610694E+02      0.1963379830E+03
          0                 5           2             5    7     1      -0.8965028333E+00       5    7    1        -0.4871017278E+02      0.1124687650E+03
          0                 6           2             5    7     1      -0.5508420972E+00       5    7    1        -0.2993405022E+02      0.6894333489E+02
          0                 7           2             4    8     1      -0.3259443896E+00       4    8    1        -0.1770740359E+02      0.3934272105E+02
          0                 8           2             4    8     1      -0.2002747941E+00       4    8    1        -0.1088289663E+02      0.2370745982E+02
          0                 9           2             4    8     1      -0.1229584366E+00       4    8    1        -0.6686630531E+01      0.1392553198E+02
          0                10           2             4    8     1      -0.7489521008E-01       4    8    1        -0.4104820639E+01      0.7277673289E+01
                                                   Max.-Head-Change                         Max.-Flux-Residual
  Residual-Control   Outer-Iter.   Inner-Iter.     Column Row Layer    Maximum-Head-Change  Column Row Layer    Maximum-Flux-Residual          L2-NORM 
          0                11           2             4    8     1      -0.4544969532E-01       4    8    1        -0.2498009090E+01      0.4322092968E+01
          0                12           2             4    7     1      -0.2759703390E-01       4    8    1        -0.1515382746E+01      0.2624492217E+01
          0                13           2             4    7     1      -0.1702107587E-01       4    7    1        -0.9217522351E+00      0.1598598491E+01
          0                14           2             4    7     1      -0.1049183974E-01       4    7    1        -0.5684662183E+00      0.9741324704E+00
          0                15           2             4    7     1      -0.6463553789E-02       4    7    1        -0.3503777347E+00      0.5936733425E+00
          0                16           2             4    7     1      -0.3979802036E-02       4    7    1        -0.2158365462E+00      0.3618426789E+00
          0                17           2             4    7     1      -0.2449269612E-02       4    7    1        -0.1328878919E+00      0.2205644453E+00
          0                18           2             4    7     1      -0.1506643256E-02       4    7    1        -0.8177722081E-01      0.1344600906E+00
          0                19           2             4    7     1      -0.9263939042E-03       4    7    1        -0.5030131964E-01      0.8197676537E-01
          0                20           2             4    7     1      -0.5693825172E-03       4    7    1        -0.3092709382E-01      0.4998325099E-01
                                                   Max.-Head-Change                         Max.-Flux-Residual
  Residual-Control   Outer-Iter.   Inner-Iter.     Column Row Layer    Maximum-Head-Change  Column Row Layer    Maximum-Flux-Residual          L2-NORM 
          0                21           2             4    7     1      -0.3498216142E-03       4    7    1        -0.1900742185E-01      0.3047834780E-01
          0                22           2             4    7     1      -0.2148489874E-03       4    7    1        -0.1167730129E-01      0.1858611249E-01
          0                23           2             4    7     1      -0.1319087177E-03       4    7    1        -0.7171449351E-02      0.1133478175E-01
          0                24           1             4    7     1      -0.8096100420E-04       4    7    1        -0.4402768443E-02      0.6912938405E-02

    ------------------------------------------------
       NWT REQUIRED           24 OUTER ITERATIONS 
       AND A TOTAL OF         47 INNER ITERATIONS.
    ------------------------------------------------

 NO OUTPUT CONTROL FOR STRESS PERIOD   20   TIME STEP   28
 
 SOLVING FOR HEAD 
                                                   Max.-Head-Change                         Max.-Flux-Residual
  Residual-Control   Outer-Iter.   Inner-Iter.     Column Row Layer    Maximum-Head-Change  Column Row Layer    Maximum-Flux-Residual          L2-NORM 
          0                 1           2             4    7     1       0.2115754094E+01       4    7    1         0.1105296708E+03      0.2645329422E+03
          0                 2           2             4    7     1       0.1240969828E+01       4    7    1         0.6499166735E+02      0.1457882808E+03
          0                 3           2             4    8     1       0.7565785935E+00       4    8    1         0.4007333894E+02      0.8675812519E+02
          0                 4           2             4    7     1      -0.1505765064E+01       4    6    1        -0.8137492563E+02      0.1934093734E+03
          0                 5           2             5    7     1      -0.8961438055E+00       5    7    1        -0.4873716208E+02      0.1108047421E+03
          0                 6           2             5    7     1      -0.5500751841E+00       5    7    1        -0.2991890315E+02      0.6790955532E+02
          0                 7           2             4    8     1      -0.3243144791E+00       4    8    1        -0.1762472695E+02      0.4084858662E+02
          0                 8           2             4    8     1      -0.1992011257E+00       4    8    1        -0.1082807056E+02      0.2324026589E+02
          0                 9           2             4    8     1      -0.1223085164E+00       4    8    1        -0.6650539525E+01      0.1397555977E+02
          0                10           2             4    8     1      -0.7506745846E-01       4    8    1        -0.4083176355E+01      0.8477942409E+01
                                                   Max.-Head-Change                         Max.-Flux-Residual
  Residual-Control   Outer-Iter.   Inner-Iter.     Column Row Layer    Maximum-Head-Change  Column Row Layer    Maximum-Flux-Residual          L2-NORM 
          0                11           2             4    8     1      -0.4605663481E-01       4    8    1        -0.2505930669E+01      0.5157478927E+01
          0                12           2             4    8     1      -0.2813579624E-01       4    8    1        -0.1537401668E+01      0.2980264588E+01
          0                13           2             4    8     1      -0.1709258254E-01       4    8    1        -0.9387182396E+00      0.1745932917E+01
          0                14           2             4    8     1      -0.1035888877E-01       4    8    1        -0.5699323179E+00      0.1058008185E+01
          0                15           2             4    8     1      -0.6273033776E-02       4    8    1        -0.3453274347E+00      0.6445774562E+00
          0                16           2             4    8     1      -0.3798123463E-02       4    8    1        -0.2091029533E+00      0.3679337517E+00
          0                17           2             4    7     1      -0.2310444875E-02       4    8    1        -0.1266018554E+00      0.2169487228E+00
          0                18           2             4    7     1      -0.1420999777E-02       4    7    1        -0.7713998484E-01      0.1315250876E+00
          0                19           2             4    7     1      -0.8736430198E-03       4    7    1        -0.4744120316E-01      0.8006358448E-01
          0                20           2             4    7     1      -0.5369319748E-03       4    7    1        -0.2916574644E-01      0.4876693635E-01
                                                   Max.-Head-Change                         Max.-Flux-Residual
  Residual-Control   Outer-Iter.   Inner-Iter.     Column Row Layer    Maximum-Head-Change  Column Row Layer    Maximum-Flux-Residual          L2-NORM 
          0                21           2             4    7     1      -0.3298803967E-03       4    7    1        -0.1792405222E-01      0.2970863368E-01
          0                22           2             4    7     1      -0.2026064463E-03       4    7    1        -0.1101163984E-01      0.1810029686E-01
          0                23           2             4    7     1      -0.1243990338E-03       4    7    1        -0.6762823857E-02      0.1102891520E-01
          0                24           1             4    7     1      -0.7635806561E-04       4    7    1        -0.4152139275E-02      0.6720825666E-02

    ------------------------------------------------
       NWT REQUIRED           24 OUTER ITERATIONS 
       AND A TOTAL OF         47 INNER ITERATIONS.
    ------------------------------------------------

 NO OUTPUT CONTROL FOR STRESS PERIOD   20   TIME STEP   29
 
 SOLVING FOR HEAD 
                                                   Max.-Head-Change                         Max.-Flux-Residual
  Residual-Control   Outer-Iter.   Inner-Iter.     Column Row Layer    Maximum-Head-Change  Column Row Layer    Maximum-Flux-Residual          L2-NORM 
          0                 1           2             4    7     1       0.2106335242E+01       4    7    1         0.1100421888E+03      0.2634805189E+03
          0                 2           2             4    7     1       0.1235178800E+01       4    7    1         0.6469008067E+02      0.1475676603E+03
          0                 3           2             4    8     1       0.7412724330E+00       4    8    1         0.3926509441E+02      0.8565163097E+02
          0                 4           2             4    6     1      -0.1096228948E+01       4    6    1        -0.5973229524E+02      0.1391710878E+03
          0                 5           2             4    6     1      -0.6712268537E+00       4    6    1        -0.3659167767E+02      0.8466978604E+02
          0                 6           2             5    7     1      -0.3978994232E+00       5    7    1        -0.2172965982E+02      0.4541364299E+02
          0                 7           2             5    7     1      -0.2431545747E+00       5    7    1        -0.1327780982E+02      0.2777197819E+02
          0                 8           2             5    7     1      -0.1486007585E+00       5    7    1        -0.8113904683E+01      0.1698952083E+02
          0                 9           2             5    7     1      -0.9082189171E-01       5    7    1        -0.4958653884E+01      0.1039680652E+02
          0                10           2             5    7     1      -0.5551274213E-01       5    7    1        -0.3030604876E+01      0.6364354582E+01
                                                   Max.-Head-Change                         Max.-Flux-Residual
  Residual-Control   Outer-Iter.   Inner-Iter.     Column Row Layer    Maximum-Head-Change  Column Row Layer    Maximum-Flux-Residual          L2-NORM 
          0                11           2             5    7     1      -0.3393353789E-01       5    7    1        -0.1852370937E+01      0.3897050218E+01
          0                12           2             5    7     1      -0.2074443228E-01       5    7    1        -0.1132299446E+01      0.2386915245E+01
          0                13           2             5    7     1      -0.1268269115E-01       5    7    1        -0.6921988423E+00      0.1462345234E+01
          0                14           2             5    7     1      -0.7754612014E-02       5    7    1        -0.4231926513E+00      0.8961231548E+00
          0                15           2             5    7     1      -0.4741859749E-02       5    7    1        -0.2587523731E+00      0.5492672082E+00
          0                16           2             5    7     1      -0.2899868632E-02       5    7    1        -0.1582233902E+00      0.3367375159E+00
          0                17           2             5    7     1      -0.1773575933E-02       5    7    1        -0.9676050758E-01      0.2064834296E+00
          0                18           2             5    7     1      -0.1084835265E-02       5    7    1        -0.5917898735E-01      0.1266365625E+00
          0                19           2             5    7     1      -0.6636221996E-03       5    7    1        -0.3619758054E-01      0.7767976110E-01
          0                20           2             5    7     1      -0.4059958033E-03       5    7    1        -0.2214291130E-01      0.4765697432E-01
                                                   Max.-Head-Change                         Max.-Flux-Residual
  Residual-Control   Outer-Iter.   Inner-Iter.     Column Row Layer    Maximum-Head-Change  Column Row Layer    Maximum-Flux-Residual          L2-NORM 
          0                21           2             5    7     1      -0.2484082473E-03       5    7    1        -0.1354669867E-01      0.2924220492E-01
          0                22           2             5    7     1      -0.1520038157E-03       5    7    1        -0.8288502631E-02      0.1794545028E-01
          0                23           1             5    7     1      -0.9302240558E-04       5    7    1        -0.5071807022E-02      0.1101425162E-01

    ------------------------------------------------
       NWT REQUIRED           23 OUTER ITERATIONS 
       AND A TOTAL OF         45 INNER ITERATIONS.
    ------------------------------------------------

 NO OUTPUT CONTROL FOR STRESS PERIOD   20   TIME STEP   30



 STREAM LISTING     PERIOD     20   STEP       30

 LAYER ROW COL. STREAM  RCH.  FLOW INTO     FLOW TO   FLOW OUT OF   OVRLND.     DIRECT     STREAM       STREAM     STREAM     STREAM   STREAMBED  STREAMBED
                SEG.NO.  NO.  STRM. RCH.    AQUIFER    STRM. RCH.    RUNOFF     PRECIP       ET          HEAD       DEPTH      WIDTH   CONDCTNC.   GRADIENT

   1    1    1     1     1    1.6138E+01  1.9509E-01   1.5943E+01  0.000E+00  0.000E+00  0.000E+00  1.09408E+03  1.032E+00  1.075E+01  4.839E-02  1.344E+00
   1    2    2     1     2    1.5943E+01  3.0079E-01   1.5642E+01  0.000E+00  0.000E+00  0.000E+00  1.08909E+03  1.027E+00  1.067E+01  7.469E-02  1.342E+00
   1    3    3     1     3    1.5642E+01  2.5522E-01   1.5387E+01  0.000E+00  0.000E+00  0.000E+00  1.08344E+03  1.022E+00  1.058E+01  6.345E-02  1.341E+00
   1    3    4     1     4    1.5387E+01  2.3394E-01   1.5153E+01  0.000E+00  0.000E+00  0.000E+00  1.07843E+03  1.017E+00  1.049E+01  5.823E-02  1.339E+00
   1    4    5     2     1    1.3153E+01  2.9763E-01   1.2856E+01  0.000E+00  0.000E+00  0.000E+00  1.07275E+03  8.158E-01  1.200E+01  7.800E-02  1.272E+00
   1    5    6     2     2    1.2856E+01  2.2835E-01   1.2627E+01  0.000E+00  0.000E+00  0.000E+00  1.06732E+03  8.059E-01  1.200E+01  6.000E-02  1.269E+00
   1    6    6     2     3    1.2627E+01  2.2783E-01   1.2399E+01  0.000E+00  0.000E+00  0.000E+00  1.06259E+03  7.972E-01  1.200E+01  6.000E-02  1.266E+00
   1    7    6     2     4    1.2399E+01  2.2731E-01   1.2172E+01  0.000E+00  0.000E+00  0.000E+00  1.05786E+03  7.885E-01  1.200E+01  6.000E-02  1.263E+00
   1    8    6     2     5    1.2172E+01  2.2678E-01   1.1945E+01  0.000E+00  0.000E+00  0.000E+00  1.05314E+03  7.797E-01  1.200E+01  6.000E-02  1.260E+00
   1    3    5     3     1    2.0000E+00  2.8252E-01   1.7175E+00  0.000E+00  0.000E+00  0.000E+00  1.07555E+03  1.909E+00  9.636E+00  7.227E-02  1.955E+00
   1    3    6     3     2    1.7175E+00  2.4905E-01   1.4684E+00  0.000E+00  0.000E+00  0.000E+00  1.07264E+03  1.727E+00  8.909E+00  6.682E-02  1.864E+00
   1    3    7     3     3    1.4684E+00  1.9718E-01   1.2712E+00  0.000E+00  0.000E+00  0.000E+00  1.06987E+03  1.555E+00  8.218E+00  5.547E-02  1.777E+00
   1    4    8     3     4    1.2712E+00  2.2567E-01   1.0456E+00  0.000E+00  0.000E+00  0.000E+00  1.06682E+03  1.364E+00  7.455E+00  6.709E-02  1.682E+00
   1    5    8     3     5    1.0456E+00  1.5790E-01   8.8768E-01  0.000E+00  0.000E+00  0.000E+00  1.06362E+03  1.164E+00  6.655E+00  4.991E-02  1.582E+00
   1    6    8     3     6    8.8768E-01  5.5980E-02   8.3170E-01  0.000E+00  0.000E+00  0.000E+00  1.06158E+03  1.036E+00  6.145E+00  1.844E-02  1.518E+00
   1    5   10     4     1    1.0000E+01  9.0919E-02   9.9091E+00  0.000E+00  0.000E+00  0.000E+00  1.07836E+03  6.368E-01  1.000E+01  2.500E-02  1.212E+00
   1    5    9     4     2    9.9091E+00  1.8158E-01   9.7275E+00  0.000E+00  0.000E+00  0.000E+00  1.07154E+03  6.315E-01  1.000E+01  5.000E-02  1.211E+00
   1    6    8     4     3    9.7275E+00  1.2689E-01   9.6006E+00  0.000E+00  0.000E+00  0.000E+00  1.06381E+03  6.256E-01  1.000E+01  3.500E-02  1.209E+00
   1    6    8     5     1    1.0432E+01  2.2686E-01   1.0205E+01  0.000E+00  0.000E+00  0.000E+00  1.05868E+03  6.790E-01  1.542E+01  6.166E-02  1.226E+00
   1    7    7     5     2    1.0205E+01  2.7894E-01   9.9265E+00  0.000E+00  0.000E+00  0.000E+00  1.05417E+03  6.732E-01  1.519E+01  7.594E-02  1.224E+00
   1    8    7     5     3    9.9265E+00  1.9221E-01   9.7343E+00  0.000E+00  0.000E+00  0.000E+00  1.04992E+03  6.676E-01  1.497E+01  5.241E-02  1.223E+00
   1    8    6     5     4    9.7343E+00  1.3577E-01   9.5985E+00  0.000E+00  0.000E+00  0.000E+00  1.04691E+03  6.637E-01  1.482E+01  3.706E-02  1.221E+00
   1    9    6     6     1    9.5985E+00  2.2097E-01   9.3776E+00  0.000E+00  0.000E+00  0.000E+00  1.04341E+03  6.828E-01  1.200E+01  6.000E-02  1.228E+00
   1   10    7     6     2    9.3776E+00  2.2039E-01   9.1572E+00  0.000E+00  0.000E+00  0.000E+00  1.03885E+03  6.732E-01  1.200E+01  6.000E-02  1.224E+00
   1   11    7     6     3    9.1572E+00  2.1981E-01   8.9374E+00  0.000E+00  0.000E+00  0.000E+00  1.03430E+03  6.636E-01  1.200E+01  6.000E-02  1.221E+00
   1   12    7     6     4    8.9374E+00  2.1923E-01   8.7181E+00  0.000E+00  0.000E+00  0.000E+00  1.02974E+03  6.539E-01  1.200E+01  6.000E-02  1.218E+00
   1   13    7     6     5    8.7181E+00 -9.4797E-05   8.7182E+00  0.000E+00  0.000E+00  0.000E+00  1.02656E+03  6.490E-01  1.200E+01  2.400E-01 -1.317E-04
   1   14    9     7     1    1.5000E+02  1.3802E+00   1.4862E+02  0.000E+00  0.000E+00  0.000E+00  1.03987E+03  2.288E+00  5.529E+01  5.593E-01  8.226E-01
   1   13    8     7     2    1.4862E+02  1.9921E+00   1.4663E+02  0.000E+00  0.000E+00  0.000E+00  1.03478E+03  2.279E+00  5.525E+01  6.147E-01  1.080E+00
   1   13    7     7     3    1.4663E+02  1.7474E+00   1.4488E+02  0.000E+00  0.000E+00  0.000E+00  1.02969E+03  2.269E+00  5.521E+01  5.584E-01  1.043E+00
   1   13    6     8     1    1.5360E+02  1.1050E+00   1.5249E+02  0.000E+00  0.000E+00  0.000E+00  1.02471E+03  2.838E+00  4.115E+01  4.194E-01  8.783E-01
   1   13    5     8     2    1.5249E+02  3.6196E-01   1.5213E+02  0.000E+00  0.000E+00  0.000E+00  1.01846E+03  2.833E+00  4.108E+01  4.186E-01  2.882E-01
   1   13    4     8     3    1.5213E+02 -1.7738E+00   1.5391E+02  0.000E+00  0.000E+00  0.000E+00  1.01221E+03  2.838E+00  4.115E+01  4.193E+00 -1.410E-01
   1   13    3     8     4    1.5391E+02 -3.3206E+00   1.5723E+02  0.000E+00  0.000E+00  0.000E+00  1.00598E+03  2.856E+00  4.141E+01  4.219E+00 -2.623E-01
   1   13    2     8     5    1.5723E+02 -2.5043E+00   1.5973E+02  0.000E+00  0.000E+00  0.000E+00  9.99751E+02  2.876E+00  4.170E+01  4.249E+00 -1.965E-01
   1   13    1     8     6    1.5973E+02 -1.9649E+00   1.6170E+02  0.000E+00  0.000E+00  0.000E+00  9.94766E+02  2.891E+00  4.191E+01  2.563E+00 -2.556E-01
   1    8    6     9     1    1.1945E+01  0.0000E+00   1.1945E+01  0.000E+00  0.000E+00  0.000E+00  1.08127E+03  2.521E+00  4.000E+00  0.000E+00  1.840E+00
   1    8    5     9     2    1.1945E+01  0.0000E+00   1.1945E+01  0.000E+00  0.000E+00  0.000E+00  1.08077E+03  2.521E+00  4.000E+00  0.000E+00  1.840E+00





UNSATURATED ZONE PACKAGE VOLUMETRIC BUDGET FOR  TIME STEP    30 STRESS PERIOD   20
  ------------------------------------------------------------------------------



     CUMULATIVE VOLUMES      L**3       RATES FOR THIS TIME STEP      L**3/T
     ------------------                 ------------------------

           IN:                                      IN:
           ---                                      ---
        INFILTRATION =  3969674262.7240          INFILTRATION =         483.7156

          OUT:                                     OUT:
          ----                                     ----
              UZF ET =   694141830.1603                UZF ET =          60.8175
        UZF RECHARGE =  2062198568.2988          UZF RECHARGE =         829.9900

            IN - OUT =  1213333864.2648              IN - OUT =        -407.0919

          STORAGE:                                 STORAGE:
          --------                                 --------
      STORAGE CHANGE =  1213327238.2591        STORAGE CHANGE =        -407.0919

 PERCENT DISCREPANCY IS DIFFERENCE BETWEEN IN-OUT MINUS CHANGE IN STORAGE
 DIVIDED BY THE AVERAGE OF IN AND OUT TIMES 100

 PERCENT DISCREPANCY =           0.00     PERCENT DISCREPANCY =           0.00






1
  VOLUMETRIC BUDGET FOR AGRICULTURAL FIELDS AT  END OF TIME STEP   30, STRESS PERIOD  20
  ------------------------------------------------------------------------------

     CUMULATIVE VOLUMES      L**3       RATES FOR THIS TIME STEP      L**3/T
     ------------------                 ------------------------

           IN:                                      IN:
           ---                                      ---
               AG WELLS  =  3455316736.0000                 AG WELLS  =         470.9226
      DIVERSION SEGMENTS =   471929888.0000        DIVERSION SEGMENTS =          11.9453
           GW IRRIGATION =           0.0000             GW IRRIGATION =           0.0000
           SW IRRIGATION =           0.0000             SW IRRIGATION =           0.0000
        SYSTEM LOSSES GW =           0.0000          SYSTEM LOSSES GW =           0.0000
        SYSTEM LOSSES SW =           0.0000          SYSTEM LOSSES SW =           0.0000

                TOTAL IN =  3927246592.0000                  TOTAL IN =         482.8679

          OUT:                                     OUT:
          ----                                     ----
               AG WELLS  =           0.0000                 AG WELLS  =           0.0000
      DIVERSION SEGMENTS =           0.0000        DIVERSION SEGMENTS =           0.0000
           GW IRRIGATION =  3455316736.0000             GW IRRIGATION =         470.9226
           SW IRRIGATION =   471938784.0000             SW IRRIGATION =          11.9455
        SYSTEM LOSSES GW =           0.0000          SYSTEM LOSSES GW =           0.0000
        SYSTEM LOSSES SW =           0.0000          SYSTEM LOSSES SW =           0.0000

               TOTAL OUT =  3927255552.0000                 TOTAL OUT =         482.8681

                IN - OUT =       -8960.0000                  IN - OUT =      -2.4414E-04

     PERCENT DISCREPANCY =          -0.00         PERCENT DISCREPANCY =          -0.00



1
  VOLUMETRIC BUDGET FOR ENTIRE MODEL AT END OF TIME STEP   30, STRESS PERIOD  20
  ------------------------------------------------------------------------------

     CUMULATIVE VOLUMES      L**3       RATES FOR THIS TIME STEP      L**3/T
     ------------------                 ------------------------

           IN:                                      IN:
           ---                                      ---
             STORAGE     =  3206752768.0000               STORAGE     =          76.6389
       CONSTANT HEAD     =           0.0000         CONSTANT HEAD     =           0.0000
     HEAD DEP BOUNDS     =    14422022.0000       HEAD DEP BOUNDS     =           0.2888
      STREAM LEAKAGE     =   595503744.0000        STREAM LEAKAGE     =          12.0615
        UZF RECHARGE     =  2062198784.0000          UZF RECHARGE     =         829.9900
               GW ET     =           0.0000                 GW ET     =           0.0000
     SURFACE LEAKAGE     =           0.0000       SURFACE LEAKAGE     =           0.0000
           AG WELLS      =           0.0000             AG WELLS      =           0.0000

                TOTAL IN =  5878877184.0000                  TOTAL IN =         918.9791

          OUT:                                     OUT:
          ----                                     ----
             STORAGE     =  1907694720.0000               STORAGE     =         438.2231
       CONSTANT HEAD     =           0.0000         CONSTANT HEAD     =           0.0000
     HEAD DEP BOUNDS     =    14393598.0000       HEAD DEP BOUNDS     =           0.2862
      STREAM LEAKAGE     =   501413536.0000        STREAM LEAKAGE     =           9.5636
        UZF RECHARGE     =           0.0000          UZF RECHARGE     =           0.0000
               GW ET     =           0.0000                 GW ET     =           0.0000
     SURFACE LEAKAGE     =           0.0000       SURFACE LEAKAGE     =           0.0000
           AG WELLS      =  3455316736.0000             AG WELLS      =         470.9226

               TOTAL OUT =  5878818816.0000                 TOTAL OUT =         918.9956

                IN - OUT =       58368.0000                  IN - OUT =      -1.6479E-02

     PERCENT DISCREPANCY =           0.00         PERCENT DISCREPANCY =          -0.00






         TIME SUMMARY AT END OF TIME STEP   30 IN STRESS PERIOD   20
                    SECONDS     MINUTES      HOURS       DAYS        YEARS
                    -----------------------------------------------------------
   TIME STEP LENGTH  87667.      1461.1      24.352      1.0147     2.77799E-03
 STRESS PERIOD TIME 2.63000E+06  43833.      730.56      30.440     8.33397E-02
         TOTAL TIME 5.00565E+07 8.34276E+05  13905.      579.36      1.5862    
1
1
                            STRESS PERIOD NO.   21, LENGTH =   2630000.    
                            -----------------------------------------------

                              NUMBER OF TIME STEPS =    30

                               MULTIPLIER FOR DELT =     1.000

                            INITIAL TIME STEP SIZE =   87666.66    

 REUSING NON-PARAMETER GHB CELLS FROM LAST STRESS PERIOD

      2 GHB CELLS

 REUSING STREAM SEGMENT DATA FROM LAST STRESS PERIOD



            AREAL INFILTRATION RATE
 READING ON UNIT   19 WITH FORMAT: (FREE)              

            1           2           3           4           5           6           7           8           9          10
 ........................................................................................................................
   1   1.0000E-10  2.0000E-10   0.000       0.000       0.000       0.000       0.000       0.000       0.000       0.000    
   2   2.0000E-10  1.0000E-10  2.0000E-10   0.000       0.000      8.0000E-10  8.0000E-10  5.0000E-10   0.000       0.000    
   3    0.000      5.0000E-10  1.0000E-10  1.0000E-10  8.0000E-10  8.0000E-10  5.0000E-10  5.0000E-10   0.000       0.000    
   4   8.0000E-10  5.0000E-10  1.0000E-10  1.0000E-10  1.0000E-10  1.0000E-10  1.0000E-10  1.0000E-10  2.0000E-10   0.000    
   5   8.0000E-10  5.0000E-10  1.0000E-10  1.0000E-10  1.0000E-10  1.0000E-10  1.0000E-10  1.0000E-10  1.0000E-10  1.0000E-10
   6   8.0000E-10  5.0000E-10  5.0000E-10  2.0000E-10  2.0000E-10  1.0000E-10  1.0000E-10  1.0000E-10  1.0000E-10  5.0000E-10
   7   8.0000E-10  5.0000E-10  5.0000E-10  2.0000E-10  2.0000E-10  1.0000E-10  1.0000E-10  2.0000E-10  2.0000E-10   0.000    
   8    0.000      5.0000E-10  5.0000E-10  2.0000E-10  2.0000E-10  1.0000E-10  1.0000E-10  2.0000E-10  5.0000E-10   0.000    
   9    0.000      5.0000E-10  5.0000E-10  2.0000E-10  2.0000E-10  1.0000E-10  1.0000E-10  2.0000E-10  5.0000E-10   0.000    
  10    0.000      5.0000E-10  5.0000E-10  2.0000E-10  2.0000E-10  1.0000E-10  1.0000E-10  2.0000E-10  5.0000E-10  8.0000E-10
  11    0.000      1.0000E-10  1.0000E-10  1.0000E-10  1.0000E-10  1.0000E-10  1.0000E-10  2.0000E-10  5.0000E-10   0.000    
  12   1.0000E-10  1.0000E-10  1.0000E-10  1.0000E-10  1.0000E-10  1.0000E-10  1.0000E-10  1.0000E-10  2.0000E-10   0.000    
  13   1.0000E-10  1.0000E-10  2.0000E-10  2.0000E-10  2.0000E-10  2.0000E-10  2.0000E-10  1.0000E-10  1.0000E-10   0.000    
  14    0.000      2.0000E-10  5.0000E-10  5.0000E-10  5.0000E-10  5.0000E-10  5.0000E-10  2.0000E-10  1.0000E-10   0.000    
  15    0.000       0.000      8.0000E-10  8.0000E-10  8.0000E-10  8.0000E-10   0.000       0.000       0.000       0.000    

                  ET RATE =  3.250000E-07

 USING ET EXTINCTION DEPTH FROM PREVIOUS STRESS PERIOD. CURRENT PERIOD IS:      21

 USING EXTINCTION WATER CONTENT FROM PREVIOUS STRESS PERIOD. CURRENT PERIOD IS:      21

 USING AIR ENTRY PRESSURE FROM PREVIOUS STRESS PERIOD. CURRENT PERIOD IS:      21

 USING ROOT PRESSURE HEAD FROM PREVIOUS STRESS PERIOD. CURRENT PERIOD IS:      21

 USING ROOT ACTIVITY FROM PREVIOUS STRESS PERIOD. CURRENT PERIOD IS:      21

 PROCESSING AG STRESS PERIOD DATA

 READING AG STRESS PERIOD DATA

 READING IRRIGATION SEGMENT

 READING IRRIGATION WELL

 READING SUPPLEMENTAL WELL

 END PROCESSING AG STRESS PERIOD DATA OPTIONS
 
 SOLVING FOR HEAD 
                                                   Max.-Head-Change                         Max.-Flux-Residual
  Residual-Control   Outer-Iter.   Inner-Iter.     Column Row Layer    Maximum-Head-Change  Column Row Layer    Maximum-Flux-Residual          L2-NORM 
          0                 1           2             4    7     1       0.2084845525E+01       4    7    1         0.1089117550E+03      0.2597416150E+03
          0                 2           2             5    7     1       0.1095160312E+01       5    7    1         0.5793581389E+02      0.1321318354E+03
          0                 3           2             5    7     1       0.6601787722E+00       5    7    1         0.3493759836E+02      0.7644495316E+02
          0                 4           2             5    7     1       0.3960967449E+00       5    7    1         0.2106001081E+02      0.4295392260E+02
          0                 5           2             5    7     1       0.2345120315E+00       5    7    1         0.1262588705E+02      0.2262984796E+02
          0                 6           2             4    7     1       0.1334832320E+00       4    7    1         0.7043086217E+01      0.1187931227E+02
          0                 7           2             4    7     1       0.8028215615E-01       4    7    1         0.4260361161E+01      0.6748419381E+01
          0                 8           2             4    7     1       0.4814094287E-01       4    7    1         0.2559921572E+01      0.4012083107E+01
          0                 9           2             4    7     1       0.2883643038E-01       4    7    1         0.1534530311E+01      0.2398845993E+01
          0                10           2             4    7     1       0.1726602438E-01       4    7    1         0.9190708061E+00      0.1435067681E+01
                                                   Max.-Head-Change                         Max.-Flux-Residual
  Residual-Control   Outer-Iter.   Inner-Iter.     Column Row Layer    Maximum-Head-Change  Column Row Layer    Maximum-Flux-Residual          L2-NORM 
          0                11           2             4    7     1       0.1033644808E-01       4    7    1         0.5502746541E+00      0.8585087269E+00
          0                12           2             4    7     1       0.6187509673E-02       4    7    1         0.3294200063E+00      0.5135793306E+00
          0                13           2             4    7     1       0.3703734074E-02       4    7    1         0.1971924419E+00      0.3072315836E+00
          0                14           2             4    7     1       0.2216911506E-02       4    7    1         0.1180351802E+00      0.1837903251E+00
          0                15           2             4    7     1       0.1326917304E-02       4    7    1         0.7065093866E-01      0.1099459142E+00
          0                16           2             4    7     1       0.7941956152E-03       4    7    1         0.4228746158E-01      0.6577118075E-01
          0                17           2             4    7     1       0.4753352442E-03       4    7    1         0.2531008314E-01      0.3934525988E-01
          0                18           2             4    7     1       0.2844867634E-03       4    7    1         0.1514832219E-01      0.2353691121E-01
          0                19           2             4    7     1       0.1702606019E-03       4    7    1         0.9066195810E-02      0.1408013405E-01
          0                20           1             4    7     1       0.1018959242E-03       4    7    1         0.5425949942E-02      0.8422952757E-02
          0                21           1             4    7     1       0.6098042798E-04       4    7    1         0.3247260177E-02      0.5038742642E-02

    ------------------------------------------------
       NWT REQUIRED           21 OUTER ITERATIONS 
       AND A TOTAL OF         40 INNER ITERATIONS.
    ------------------------------------------------

 NO OUTPUT CONTROL FOR STRESS PERIOD   21   TIME STEP    1
 
 SOLVING FOR HEAD 
                                                   Max.-Head-Change                         Max.-Flux-Residual
  Residual-Control   Outer-Iter.   Inner-Iter.     Column Row Layer    Maximum-Head-Change  Column Row Layer    Maximum-Flux-Residual          L2-NORM 
          0                 1           2             4    7     1       0.2054317391E+01       4    7    1         0.1074347451E+03      0.2482263878E+03
          0                 2           2             4    8     1       0.1125991692E+01       4    8    1         0.5957126709E+02      0.1361065249E+03
          0                 3           2             4    8     1       0.6843851286E+00       4    8    1         0.3620995952E+02      0.8203373513E+02
          0                 4           2             4    7     1       0.3901075350E+00       5    7    1         0.2045183343E+02      0.4769035440E+02
          0                 5           2             4    7     1       0.2353538444E+00       4    7    1         0.1239490656E+02      0.2684162732E+02
          0                 6           2             4    7     1       0.1411916592E+00       4    7    1         0.7435719708E+01      0.1594920765E+02
          0                 7           2             4    7     1       0.7912613343E-01       4    7    1         0.4169802293E+01      0.8788401593E+01
          0                 8           2             4    7     1       0.4639220565E-01       4    7    1         0.2445283962E+01      0.5093808600E+01
          0                 9           2             4    7     1       0.1767461178E-01       4    7    1         0.9372790404E+00      0.1631554213E+01
          0                10           2             4    7     1       0.9078620694E-02       4    7    1         0.4827518617E+00      0.8166918048E+00
                                                   Max.-Head-Change                         Max.-Flux-Residual
  Residual-Control   Outer-Iter.   Inner-Iter.     Column Row Layer    Maximum-Head-Change  Column Row Layer    Maximum-Flux-Residual          L2-NORM 
          0                11           2             4    8     1      -0.5103217389E-01       4    8    1        -0.2776784497E+01      0.6361195273E+01
          0                12           2             4    8     1      -0.3131138428E-01       4    8    1        -0.1703646207E+01      0.3645093339E+01
          0                13           2             4    8     1      -0.1921196284E-01       4    8    1        -0.1045279822E+01      0.2236673632E+01
          0                14           2             4    8     1      -0.1178832127E-01       4    8    1        -0.6413523996E+00      0.1372694067E+01
          0                15           2             4    8     1      -0.7233400719E-02       4    8    1        -0.3935243767E+00      0.8425870468E+00
          0                16           2             4    8     1      -0.4438570071E-02       4    8    1        -0.2414664911E+00      0.5172719069E+00
          0                17           2             4    8     1      -0.2723662849E-02       4    8    1        -0.1481672005E+00      0.3175996207E+00
          0                18           2             4    8     1      -0.1671371882E-02       4    8    1        -0.9091948570E-01      0.1950259893E+00
          0                19           2             4    7     1      -0.1034866631E-02       4    8    1        -0.5579192231E-01      0.1197709324E+00
          0                20           2             4    7     1      -0.6423026893E-03       4    7    1        -0.3458684476E-01      0.7356178705E-01
                                                   Max.-Head-Change                         Max.-Flux-Residual
  Residual-Control   Outer-Iter.   Inner-Iter.     Column Row Layer    Maximum-Head-Change  Column Row Layer    Maximum-Flux-Residual          L2-NORM 
          0                21           2             4    7     1      -0.3984448512E-03       4    7    1        -0.2146522877E-01      0.4518464941E-01
          0                22           2             4    7     1      -0.2470499402E-03       4    7    1        -0.1331480602E-01      0.2775643369E-01
          0                23           2             4    7     1      -0.1531098175E-03       4    7    1        -0.8255126032E-02      0.1705167958E-01
          0                24           1             4    7     1      -0.9484963684E-04       4    7    1        -0.5115825131E-02      0.1047606973E-01

    ------------------------------------------------
       NWT REQUIRED           24 OUTER ITERATIONS 
       AND A TOTAL OF         47 INNER ITERATIONS.
    ------------------------------------------------

 NO OUTPUT CONTROL FOR STRESS PERIOD   21   TIME STEP    2
 
 SOLVING FOR HEAD 
                                                   Max.-Head-Change                         Max.-Flux-Residual
  Residual-Control   Outer-Iter.   Inner-Iter.     Column Row Layer    Maximum-Head-Change  Column Row Layer    Maximum-Flux-Residual          L2-NORM 
          0                 1           2             4    7     1       0.2020067032E+01       4    7    1         0.1057342597E+03      0.2372031710E+03
          0                 2           2             4    7     1       0.1133697324E+01       4    7    1         0.5953478930E+02      0.1198508171E+03
          0                 3           2             4    8     1       0.6354686374E+00       4    8    1         0.3376830738E+02      0.6754117687E+02
          0                 4           2             4    8     1       0.3760516222E+00       4    8    1         0.1998089090E+02      0.3922991483E+02
          0                 5           2             4    8     1       0.2256740974E+00       4    8    1         0.1198840618E+02      0.2364187100E+02
          0                 6           2             4    8     1       0.1354620409E+00       4    8    1         0.7194693522E+01      0.1424938859E+02
          0                 7           2             4    8     1       0.8132915185E-01       4    8    1         0.4318772245E+01      0.8589570610E+01
          0                 8           2             4    8     1       0.4883937083E-01       4    8    1         0.2593012141E+01      0.5178524808E+01
          0                 9           2             4    8     1       0.2933500419E-01       4    8    1         0.1557194705E+01      0.3122450374E+01
          0                10           2             4    8     1       0.1762346702E-01       4    8    1         0.9353469306E+00      0.1882937459E+01
                                                   Max.-Head-Change                         Max.-Flux-Residual
  Residual-Control   Outer-Iter.   Inner-Iter.     Column Row Layer    Maximum-Head-Change  Column Row Layer    Maximum-Flux-Residual          L2-NORM 
          0                11           2             4    8     1       0.1058966851E-01       4    8    1         0.5619412704E+00      0.1135594175E+01
          0                12           2             4    8     1       0.6364377105E-02       4    8    1         0.3376714440E+00      0.6849416759E+00
          0                13           2             4    8     1       0.3825680639E-02       4    8    1         0.2029456312E+00      0.4131651723E+00
          0                14           2             4    8     1       0.2300051746E-02       4    8    1         0.1219955055E+00      0.2492471778E+00
          0                15           2             4    7     1       0.1387796040E-02       4    8    1         0.7334720278E-01      0.1503731243E+00
          0                16           2             4    7     1       0.8444105896E-03       4    7    1         0.4433309353E-01      0.9072790068E-01
          0                17           2             4    7     1       0.5135952200E-03       4    7    1         0.2697318643E-01      0.5474439058E-01
          0                18           2             4    7     1       0.3122743752E-03       4    7    1         0.1640503091E-01      0.3303422943E-01
          0                19           2             4    7     1       0.1898051632E-03       4    7    1         0.9974040957E-02      0.1993482318E-01
          0                20           1             4    7     1       0.1153303746E-03       4    7    1         0.6062094257E-02      0.1203046146E-01
          0                21           1             4    7     1       0.7005684844E-04       4    7    1         0.3683318729E-02      0.7260592646E-02

    ------------------------------------------------
       NWT REQUIRED           21 OUTER ITERATIONS 
       AND A TOTAL OF         40 INNER ITERATIONS.
    ------------------------------------------------

 NO OUTPUT CONTROL FOR STRESS PERIOD   21   TIME STEP    3
 
 SOLVING FOR HEAD 
                                                   Max.-Head-Change                         Max.-Flux-Residual
  Residual-Control   Outer-Iter.   Inner-Iter.     Column Row Layer    Maximum-Head-Change  Column Row Layer    Maximum-Flux-Residual          L2-NORM 
          0                 1           2             4    7     1       0.1982115162E+01       4    7    1         0.1038502032E+03      0.2275556141E+03
          0                 2           2             4    7     1       0.1090408641E+01       4    7    1         0.5738566101E+02      0.1162788042E+03
          0                 3           2             4    6     1       0.5505610840E+00       4    6    1         0.2941274008E+02      0.5643585481E+02
          0                 4           2             4    6     1       0.3277437629E+00       4    6    1         0.1753490308E+02      0.3188077691E+02
          0                 5           2             4    6     1       0.1921397718E+00       4    6    1         0.1027164801E+02      0.1909629385E+02
          0                 6           2             4    7     1       0.9743478071E-01       4    7    1         0.5132301290E+01      0.9994990470E+01
          0                 7           2             4    7     1       0.5881593870E-01       4    7    1         0.3110696409E+01      0.5872373515E+01
          0                 8           2             4    7     1       0.3542614557E-01       4    7    1         0.1876495365E+01      0.3509928647E+01
          0                 9           2             4    7     1       0.2131937945E-01       4    7    1         0.1129970268E+01      0.2102354060E+01
          0                10           2             4    7     1       0.1282487880E-01       4    7    1         0.6799440197E+00      0.1259637169E+01
                                                   Max.-Head-Change                         Max.-Flux-Residual
  Residual-Control   Outer-Iter.   Inner-Iter.     Column Row Layer    Maximum-Head-Change  Column Row Layer    Maximum-Flux-Residual          L2-NORM 
          0                11           2             4    7     1       0.7713219893E-02       4    7    1         0.4090070255E+00      0.7548106931E+00
          0                12           2             4    7     1       0.4638215419E-02       4    7    1         0.2459805453E+00      0.4523546359E+00
          0                13           2             4    7     1       0.2788759978E-02       4    7    1         0.1479131818E+00      0.2711237347E+00
          0                14           2             4    7     1       0.1676573264E-02       4    7    1         0.8893229191E-01      0.1625178655E+00
          0                15           2             4    7     1       0.1007833950E-02       4    7    1         0.5346431911E-01      0.9742639659E-01
          0                16           2             4    7     1       0.6057779135E-03       4    7    1         0.3213839285E-01      0.5841049668E-01
          0                17           2             4    7     1       0.3640813414E-03       4    7    1         0.1931713330E-01      0.3502198743E-01
          0                18           2             4    7     1       0.2187994585E-03       4    7    1         0.1160972914E-01      0.2100019930E-01
          0                19           2             4    7     1       0.1314797970E-03       4    7    1         0.6976934601E-02      0.1259320056E-01
          0                20           1             4    7     1       0.7900212330E-04       4    7    1         0.4192494267E-02      0.7552251655E-02

    ------------------------------------------------
       NWT REQUIRED           20 OUTER ITERATIONS 
       AND A TOTAL OF         39 INNER ITERATIONS.
    ------------------------------------------------

 NO OUTPUT CONTROL FOR STRESS PERIOD   21   TIME STEP    4
 
 SOLVING FOR HEAD 
                                                   Max.-Head-Change                         Max.-Flux-Residual
  Residual-Control   Outer-Iter.   Inner-Iter.     Column Row Layer    Maximum-Head-Change  Column Row Layer    Maximum-Flux-Residual          L2-NORM 
          0                 1           2             4    7     1       0.1938206159E+01       4    7    1         0.1016331314E+03      0.2188491619E+03
          0                 2           2             4    7     1       0.1065436847E+01       4    7    1         0.5605187357E+02      0.1144026256E+03
          0                 3           2             4    7     1       0.6360639955E+00       4    7    1         0.3356622391E+02      0.6511292892E+02
          0                 4           2             4    7     1       0.3571462827E+00       4    7    1         0.1887936609E+02      0.3646896129E+02
          0                 5           2             4    6     1       0.1759151438E+00       4    6    1         0.9404623135E+01      0.1786498147E+02
          0                 6           2             4    6     1       0.1044266257E+00       4    6    1         0.5602174795E+01      0.1034016397E+02
          0                 7           2             4    6     1       0.6196965245E-01       4    6    1         0.3323643775E+01      0.6136343740E+01
          0                 8           2             4    6     1       0.3678613957E-01       4    6    1         0.1972438718E+01      0.3645438686E+01
          0                 9           2             4    6     1       0.2184394419E-01       4    6    1         0.1170926997E+01      0.2167846525E+01
          0                10           2             4    6     1       0.1297546568E-01       4    6    1         0.6953410975E+00      0.1290403437E+01
                                                   Max.-Head-Change                         Max.-Flux-Residual
  Residual-Control   Outer-Iter.   Inner-Iter.     Column Row Layer    Maximum-Head-Change  Column Row Layer    Maximum-Flux-Residual          L2-NORM 
          0                11           2             4    6     1       0.7710143971E-02       4    6    1         0.4130581448E+00      0.7688113237E+00
          0                12           2             4    6     1       0.4583018556E-02       4    6    1         0.2454552338E+00      0.4584480785E+00
          0                13           2             4    6     1       0.2725158402E-02       4    6    1         0.1459093614E+00      0.2735996851E+00
          0                14           2             4    6     1       0.1621003050E-02       4    6    1         0.8676511560E-01      0.1634087456E+00
          0                15           2             4    6     1       0.9645580495E-03       4    6    1         0.5161300813E-01      0.9766724280E-01
          0                16           2             4    6     1       0.5741501557E-03       4    6    1         0.3071324382E-01      0.5841396950E-01
          0                17           2             4    6     1       0.3418809880E-03       4    6    1         0.1828288694E-01      0.3495904569E-01
          0                18           2             4    6     1       0.2036461475E-03       4    6    1         0.1088719875E-01      0.2093433180E-01
          0                19           2             4    6     1       0.1213468122E-03       4    6    1         0.6485436580E-02      0.1254289384E-01
          0                20           1             4    6     1       0.7233208022E-04       4    6    1         0.3864675801E-02      0.7518976535E-02

    ------------------------------------------------
       NWT REQUIRED           20 OUTER ITERATIONS 
       AND A TOTAL OF         39 INNER ITERATIONS.
    ------------------------------------------------

 NO OUTPUT CONTROL FOR STRESS PERIOD   21   TIME STEP    5
 
 SOLVING FOR HEAD 
                                                   Max.-Head-Change                         Max.-Flux-Residual
  Residual-Control   Outer-Iter.   Inner-Iter.     Column Row Layer    Maximum-Head-Change  Column Row Layer    Maximum-Flux-Residual          L2-NORM 
          0                 1           2             4    7     1       0.1889414128E+01       4    7    1         0.9918709412E+02      0.2102344625E+03
          0                 2           2             4    7     1       0.1033141308E+01       4    7    1         0.5445223820E+02      0.1003351902E+03
          0                 3           2             4    7     1       0.6122908435E+00       4    7    1         0.3229430458E+02      0.5716072896E+02
          0                 4           2             4    7     1       0.3703503554E+00       4    7    1         0.1954304422E+02      0.3420433018E+02
          0                 5           2             4    7     1       0.2232564765E+00       4    7    1         0.1182002964E+02      0.1936563152E+02
          0                 6           2             4    7     1       0.1338823002E+00       4    7    1         0.7121566516E+01      0.1097071256E+02
          0                 7           2             4    7     1       0.8008952685E-01       4    7    1         0.4267351311E+01      0.6512185554E+01
          0                 8           2             4    7     1       0.4786818086E-01       4    7    1         0.2552058767E+01      0.3890225239E+01
          0                 9           2             4    7     1       0.2860121260E-01       4    7    1         0.1525172907E+01      0.2325803203E+01
          0                10           2             4    7     1       0.1708750805E-01       4    7    1         0.9112591170E+00      0.1390692818E+01
                                                   Max.-Head-Change                         Max.-Flux-Residual
  Residual-Control   Outer-Iter.   Inner-Iter.     Column Row Layer    Maximum-Head-Change  Column Row Layer    Maximum-Flux-Residual          L2-NORM 
          0                11           2             4    7     1       0.1020853159E-01       4    7    1         0.5444170076E+00      0.8316118173E+00
          0                12           2             4    7     1       0.6098890756E-02       4    7    1         0.3252486612E+00      0.4973243157E+00
          0                13           2             4    7     1       0.3643733805E-02       4    7    1         0.1943138792E+00      0.2974320498E+00
          0                14           2             4    7     1       0.2176972721E-02       4    7    1         0.1160916334E+00      0.1778949222E+00
          0                15           2             4    7     1       0.1300682045E-02       4    7    1         0.6935996256E-01      0.1064058243E+00
          0                16           2             4    7     1       0.7771447497E-03       4    7    1         0.4144085828E-01      0.6364899995E-01
          0                17           2             4    7     1       0.4643504690E-03       4    7    1         0.2476061045E-01      0.3807504539E-01
          0                18           2             4    7     1       0.2774620030E-03       4    7    1         0.1479473628E-01      0.2277772533E-01
          0                19           2             4    7     1       0.1657964302E-03       4    7    1         0.8840296429E-02      0.1362698782E-01
          0                20           1             4    7     1       0.9907433189E-04       4    7    1         0.5282512182E-02      0.8152815162E-02

    ------------------------------------------------
       NWT REQUIRED           20 OUTER ITERATIONS 
       AND A TOTAL OF         39 INNER ITERATIONS.
    ------------------------------------------------

 NO OUTPUT CONTROL FOR STRESS PERIOD   21   TIME STEP    6
 
 SOLVING FOR HEAD 
                                                   Max.-Head-Change                         Max.-Flux-Residual
  Residual-Control   Outer-Iter.   Inner-Iter.     Column Row Layer    Maximum-Head-Change  Column Row Layer    Maximum-Flux-Residual          L2-NORM 
          0                 1           2             4    7     1       0.1820035497E+01       4    7    1         0.9563889545E+02      0.1900799847E+03
          0                 2           2             4    6     1       0.8238518715E+00       4    6    1         0.4383429360E+02      0.7701823741E+02
          0                 3           2             4    6     1       0.4827002435E+00       4    6    1         0.2568120416E+02      0.4198858775E+02
          0                 4           2             4    6     1       0.2888533449E+00       4    6    1         0.1538388570E+02      0.2451447131E+02
          0                 5           2             4    7     1       0.1622070157E+00       4    7    1         0.8777179116E+01      0.1045389943E+02
          0                 6           2             4    7     1       0.9474466683E-01       4    7    1         0.5155202232E+01      0.5311613388E+01
          0                 7           2             4    7     1       0.5517382917E-01       4    7    1         0.3008315307E+01      0.3023854879E+01
          0                 8           2             4    7     1       0.3209375614E-01       4    7    1         0.1751254866E+01      0.1753334923E+01
          0                 9           2             4    7     1       0.1866048250E-01       4    7    1         0.1018543593E+01      0.1019023083E+01
          0                10           2             4    7     1       0.1084813969E-01       4    7    1         0.5921892384E+00      0.5923730175E+00
                                                   Max.-Head-Change                         Max.-Flux-Residual
  Residual-Control   Outer-Iter.   Inner-Iter.     Column Row Layer    Maximum-Head-Change  Column Row Layer    Maximum-Flux-Residual          L2-NORM 
          0                11           2             4    7     1       0.6306105253E-02       4    7    1         0.3442586772E+00      0.3443500061E+00
          0                12           1             4    7     1       0.3665701795E-02       4    7    1         0.2001187850E+00      0.2001689107E+00
          0                13           1             4    7     1       0.2130832127E-02       4    7    1         0.1163275742E+00      0.1163560980E+00
          0                14           1             4    7     1       0.1238625120E-02       4    7    1         0.6761987643E-01      0.6763632542E-01
          0                15           1             4    7     1       0.7199958127E-03       4    7    1         0.3930654540E-01      0.3931607841E-01
          0                16           1             4    7     1       0.4185234922E-03       4    7    1         0.2284835372E-01      0.2285388889E-01
          0                17           1             4    7     1       0.2432818023E-03       4    7    1         0.1328142785E-01      0.1328464401E-01
          0                18           1             4    7     1       0.1414162689E-03       4    7    1         0.7720306585E-02      0.7722175793E-02
          0                19           1             4    7     1       0.8220327304E-04       4    7    1         0.4487704952E-02      0.4488791430E-02

    ------------------------------------------------
       NWT REQUIRED           19 OUTER ITERATIONS 
       AND A TOTAL OF         30 INNER ITERATIONS.
    ------------------------------------------------

 NO OUTPUT CONTROL FOR STRESS PERIOD   21   TIME STEP    7
 
 SOLVING FOR HEAD 
                                                   Max.-Head-Change                         Max.-Flux-Residual
  Residual-Control   Outer-Iter.   Inner-Iter.     Column Row Layer    Maximum-Head-Change  Column Row Layer    Maximum-Flux-Residual          L2-NORM 
          0                 1           2             4    6     1       0.1443863008E+01       4    6    1         0.7865925092E+02      0.1030816842E+03
          0                 2           2             5    8     1       0.2600029590E+00       5    8    1         0.1452493074E+02      0.2031618053E+02
          0                 3           2             5    8     1       0.1319357119E+00       5    8    1         0.7298951874E+01      0.7538325276E+01
          0                 4           2             5    8     1       0.7267024509E-01       5    8    1         0.4020133479E+01      0.4039691412E+01
          0                 5           2             5    8     1       0.4002688713E-01       5    8    1         0.2214362270E+01      0.2215991420E+01
          0                 6           2             5    8     1       0.2204686894E-01       5    8    1         0.1219675210E+01      0.1219812732E+01
          0                 7           2             5    8     1       0.1214343958E-01       5    8    1         0.6718010762E+00      0.6718139468E+00
          0                 8           2             5    8     1       0.6688615644E-02       5    8    1         0.3700292452E+00      0.3700311979E+00
          0                 9           1             5    8     1       0.3684092895E-02       5    8    1         0.2038125396E+00      0.2038132104E+00
          0                10           1             5    8     1       0.2029199670E-02       5    8    1         0.1122600959E+00      0.1122604377E+00
                                                   Max.-Head-Change                         Max.-Flux-Residual
  Residual-Control   Outer-Iter.   Inner-Iter.     Column Row Layer    Maximum-Head-Change  Column Row Layer    Maximum-Flux-Residual          L2-NORM 
          0                11           1             5    8     1       0.1117683712E-02       5    8    1         0.6183291462E-01      0.6183310223E-01
          0                12           1             5    8     1       0.6156204235E-03       5    8    1         0.3405759013E-01      0.3405769381E-01
          0                13           1             5    8     1       0.3390838401E-03       5    8    1         0.1875892929E-01      0.1875898652E-01
          0                14           1             5    8     1       0.1867674343E-03       5    8    1         0.1033242216E-01      0.1033245373E-01
          0                15           1             5    8     1       0.1028715313E-03       5    8    1         0.5691100004E-02      0.5691117457E-02
          0                16           1             5    8     1       0.5666165467E-04       5    8    1         0.3134658839E-02      0.3134668415E-02

    ------------------------------------------------
       NWT REQUIRED           16 OUTER ITERATIONS 
       AND A TOTAL OF         24 INNER ITERATIONS.
    ------------------------------------------------

 NO OUTPUT CONTROL FOR STRESS PERIOD   21   TIME STEP    8
 
 SOLVING FOR HEAD 
                                                   Max.-Head-Change                         Max.-Flux-Residual
  Residual-Control   Outer-Iter.   Inner-Iter.     Column Row Layer    Maximum-Head-Change  Column Row Layer    Maximum-Flux-Residual          L2-NORM 
          0                 1           2             4    8     1       0.7939489834E+00       4    8    1         0.4283254916E+02      0.6857399754E+02
          0                 2           2             4    8     1       0.3362931924E+00       4    8    1         0.1837885019E+02      0.2564008275E+02
          0                 3           2             4    8     1       0.1780320875E+00       4    8    1         0.9718085057E+01      0.1177120274E+02
          0                 4           2             4    8     1       0.1001832388E+00       4    8    1         0.5451306659E+01      0.6289935612E+01
          0                 5           2             4    8     1       0.5631650841E-01       4    8    1         0.3062398160E+01      0.3496003605E+01
          0                 6           2             4    8     1       0.3167281046E-01       4    8    1         0.1721612218E+01      0.1947946151E+01
          0                 7           2             4    8     1       0.1781962571E-01       4    8    1         0.9682935818E+00      0.1086616959E+01
          0                 8           2             4    8     1       0.1002890598E-01       4    8    1         0.5447990720E+00      0.6067101853E+00
          0                 9           2             4    8     1       0.5646050603E-02       4    8    1         0.3066247290E+00      0.3390672451E+00
          0                10           2             4    8     1       0.3179582203E-02       4    8    1         0.1726289440E+00      0.1896675107E+00
                                                   Max.-Head-Change                         Max.-Flux-Residual
  Residual-Control   Outer-Iter.   Inner-Iter.     Column Row Layer    Maximum-Head-Change  Column Row Layer    Maximum-Flux-Residual          L2-NORM 
          0                11           2             4    8     1       0.1791138577E-02       4    8    1         0.9721961985E-01      0.1061961161E+00
          0                12           2             4    8     1       0.1009305585E-02       4    8    1         0.5476814361E-01      0.5951676765E-01
          0                13           2             4    8     1       0.5689201860E-03       4    8    1         0.3086288481E-01      0.3338805836E-01
          0                14           2             4    8     1       0.3207865266E-03       4    8    1         0.1739723646E-01      0.1874863155E-01
          0                15           2             4    8     1       0.1809320715E-03       4    8    1         0.9809710522E-02      0.1053843156E-01
          0                16           1             4    8     1       0.1020824247E-03       4    8    1         0.5533050419E-02      0.5929579909E-02
          0                17           1             4    8     1       0.5761375788E-04       4    8    1         0.3121830377E-02      0.3339898474E-02

    ------------------------------------------------
       NWT REQUIRED           17 OUTER ITERATIONS 
       AND A TOTAL OF         32 INNER ITERATIONS.
    ------------------------------------------------

 NO OUTPUT CONTROL FOR STRESS PERIOD   21   TIME STEP    9
 
 SOLVING FOR HEAD 
                                                   Max.-Head-Change                         Max.-Flux-Residual
  Residual-Control   Outer-Iter.   Inner-Iter.     Column Row Layer    Maximum-Head-Change  Column Row Layer    Maximum-Flux-Residual          L2-NORM 
          0                 1           2             4    7     1       0.1496397068E+01       4    7    1         0.8057466586E+02      0.1137135793E+03
          0                 2           2             4    7     1       0.7284460459E+00       4    7    1         0.3977167761E+02      0.4766189359E+02
          0                 3           2             4    7     1       0.2321141775E+00       4    7    1         0.1265101717E+02      0.1777989980E+02
          0                 4           2             4    7     1       0.4517825376E-01       4    7    1         0.2450203636E+01      0.3530196751E+01
          0                 5           2             4    6     1       0.1096575854E-01       4    6    1         0.5854243711E+00      0.8796959788E+00
          0                 6           2             4    6     1       0.6202547068E-02       4    6    1         0.3362833824E+00      0.3604417146E+00
          0                 7           2             4    6     1       0.3480899721E-02       4    6    1         0.1896966626E+00      0.1916170123E+00
          0                 8           2             4    6     1       0.1948309280E-02       4    6    1         0.1063614605E+00      0.1065535796E+00
          0                 9           2             4    6     1       0.1089506229E-02       4    6    1         0.5951349138E-01      0.5954370253E-01
          0                10           2             4    6     1       0.6090686414E-03       4    6    1         0.3327675364E-01      0.3328493475E-01
                                                   Max.-Head-Change                         Max.-Flux-Residual
  Residual-Control   Outer-Iter.   Inner-Iter.     Column Row Layer    Maximum-Head-Change  Column Row Layer    Maximum-Flux-Residual          L2-NORM 
          0                11           2             4    6     1       0.3404522932E-03       4    6    1         0.1860208358E-01      0.1860538988E-01
          0                12           2             4    6     1       0.1902962712E-03       4    6    1         0.1039791253E-01      0.1039954392E-01
          0                13           1             4    6     1       0.1063650068E-03       4    6    1         0.5811902228E-02      0.5812774122E-02
          0                14           1             4    6     1       0.5945184770E-04       4    6    1         0.3248524519E-02      0.3249004264E-02

    ------------------------------------------------
       NWT REQUIRED           14 OUTER ITERATIONS 
       AND A TOTAL OF         26 INNER ITERATIONS.
    ------------------------------------------------

 NO OUTPUT CONTROL FOR STRESS PERIOD   21   TIME STEP   10
 
 SOLVING FOR HEAD 
                                                   Max.-Head-Change                         Max.-Flux-Residual
  Residual-Control   Outer-Iter.   Inner-Iter.     Column Row Layer    Maximum-Head-Change  Column Row Layer    Maximum-Flux-Residual          L2-NORM 
          0                 1           2             4    6     1       0.1160160513E+01       4    6    1         0.6362651123E+02      0.8033795976E+02
          0                 2           2             4    6     1       0.1133094610E+00       4    6    1         0.6350817616E+01      0.1298240182E+02
          0                 3           2             4    6     1       0.1213413158E-01       4    6    1         0.6617485986E+00      0.7228097897E+00
          0                 4           2             4    6     1       0.2344413353E-02       4    6    1         0.1279043785E+00      0.1291309827E+00
          0                 5           2             4    6     1       0.4529617289E-03       4    6    1         0.2473219635E-01      0.2475288345E-01
          0                 6           1             4    6     1       0.8751634867E-04       4    6    1         0.4775524870E-02      0.4776203412E-02

    ------------------------------------------------
       NWT REQUIRED            6 OUTER ITERATIONS 
       AND A TOTAL OF         11 INNER ITERATIONS.
    ------------------------------------------------

 NO OUTPUT CONTROL FOR STRESS PERIOD   21   TIME STEP   11
 
 SOLVING FOR HEAD 
                                                   Max.-Head-Change                         Max.-Flux-Residual
  Residual-Control   Outer-Iter.   Inner-Iter.     Column Row Layer    Maximum-Head-Change  Column Row Layer    Maximum-Flux-Residual          L2-NORM 
          0                 1           2             5    6     1      -0.3878015655E+00       5    6    1        -0.2142192855E+02      0.4960014453E+02
          0                 2           2             4    7     1      -0.1050583347E+00       4    7    1        -0.5522933768E+01      0.1198698333E+02
          0                 3           2             5    6     1      -0.1970507528E-02       5    6    1        -0.1107041853E+00      0.2759117590E+00
          0                 4           2             5    6     1       0.1916761198E-03       5    6    1         0.1090720424E-01      0.1683613183E-01
          0                 5           1             5    6     1      -0.1305243863E-04       5    6    1        -0.7570311927E-03      0.9371367007E-03

    ------------------------------------------------
       NWT REQUIRED            5 OUTER ITERATIONS 
       AND A TOTAL OF          9 INNER ITERATIONS.
    ------------------------------------------------

 NO OUTPUT CONTROL FOR STRESS PERIOD   21   TIME STEP   12
 
 SOLVING FOR HEAD 
                                                   Max.-Head-Change                         Max.-Flux-Residual
  Residual-Control   Outer-Iter.   Inner-Iter.     Column Row Layer    Maximum-Head-Change  Column Row Layer    Maximum-Flux-Residual          L2-NORM 
          0                 1           2             5    6     1      -0.3614492640E+00       5    6    1        -0.1994906756E+02      0.4674523776E+02
          0                 2           2             4    7     1      -0.1049073166E+00       4    7    1        -0.5513912498E+01      0.1205150794E+02
          0                 3           2             4    5     1       0.1744165088E-02       4    5    1         0.9997889715E-01      0.2499142581E+00
          0                 4           2             5    6     1       0.1268750244E-03       5    6    1         0.7264427733E-02      0.1382769461E-01
          0                 5           1             5    6     1      -0.8639721100E-05       5    6    1        -0.5022742230E-03      0.6714378513E-03

    ------------------------------------------------
       NWT REQUIRED            5 OUTER ITERATIONS 
       AND A TOTAL OF          9 INNER ITERATIONS.
    ------------------------------------------------

 NO OUTPUT CONTROL FOR STRESS PERIOD   21   TIME STEP   13
 
 SOLVING FOR HEAD 
                                                   Max.-Head-Change                         Max.-Flux-Residual
  Residual-Control   Outer-Iter.   Inner-Iter.     Column Row Layer    Maximum-Head-Change  Column Row Layer    Maximum-Flux-Residual          L2-NORM 
          0                 1           2             5    6     1      -0.3368404965E+00       5    6    1        -0.1857723191E+02      0.4400703363E+02
          0                 2           2             4    7     1      -0.1048818007E+00       4    7    1        -0.5508937474E+01      0.1219054147E+02
          0                 3           2             4    7     1       0.1666474562E-02       4    5    1         0.9393688440E-01      0.2382324859E+00
          0                 4           1             4    7     1      -0.1134808331E-03       4    7    1        -0.6489374128E-02      0.1229159104E-01
          0                 5           1             4    7     1       0.4515506881E-05       4    7    1         0.2666845817E-03      0.4523915274E-03

    ------------------------------------------------
       NWT REQUIRED            5 OUTER ITERATIONS 
       AND A TOTAL OF          8 INNER ITERATIONS.
    ------------------------------------------------

 NO OUTPUT CONTROL FOR STRESS PERIOD   21   TIME STEP   14
 
 SOLVING FOR HEAD 
                                                   Max.-Head-Change                         Max.-Flux-Residual
  Residual-Control   Outer-Iter.   Inner-Iter.     Column Row Layer    Maximum-Head-Change  Column Row Layer    Maximum-Flux-Residual          L2-NORM 
          0                 1           2             5    6     1      -0.3138845959E+00       5    6    1        -0.1729851434E+02      0.4144200310E+02
          0                 2           2             4    7     1      -0.1049206002E+00       4    7    1        -0.5507598828E+01      0.1233201806E+02
          0                 3           2             4    7     1       0.2033628633E-02       4    7    1         0.1118290308E+00      0.2479936489E+00
          0                 4           1             4    7     1      -0.1384827241E-03       4    7    1        -0.7836583032E-02      0.1346750823E-01
          0                 5           1             4    7     1       0.5510359244E-05       4    7    1         0.3208553435E-03      0.4602054516E-03

    ------------------------------------------------
       NWT REQUIRED            5 OUTER ITERATIONS 
       AND A TOTAL OF          8 INNER ITERATIONS.
    ------------------------------------------------

 NO OUTPUT CONTROL FOR STRESS PERIOD   21   TIME STEP   15
 
 SOLVING FOR HEAD 
                                                   Max.-Head-Change                         Max.-Flux-Residual
  Residual-Control   Outer-Iter.   Inner-Iter.     Column Row Layer    Maximum-Head-Change  Column Row Layer    Maximum-Flux-Residual          L2-NORM 
          0                 1           2             5    6     1      -0.2924547191E+00       5    6    1        -0.1610569670E+02      0.3903686284E+02
          0                 2           2             4    7     1      -0.1050188752E+00       4    7    1        -0.5509624918E+01      0.1247410554E+02
          0                 3           2             4    7     1       0.2403636945E-02       4    7    1         0.1313933321E+00      0.2756307722E+00
          0                 4           2             4    7     1      -0.1636789668E-03       4    7    1        -0.9205859507E-02      0.1634748647E-01
          0                 5           1             4    7     1       0.6512938281E-05       4    7    1         0.3768497425E-03      0.6069893858E-03

    ------------------------------------------------
       NWT REQUIRED            5 OUTER ITERATIONS 
       AND A TOTAL OF          9 INNER ITERATIONS.
    ------------------------------------------------

 NO OUTPUT CONTROL FOR STRESS PERIOD   21   TIME STEP   16
 
 SOLVING FOR HEAD 
                                                   Max.-Head-Change                         Max.-Flux-Residual
  Residual-Control   Outer-Iter.   Inner-Iter.     Column Row Layer    Maximum-Head-Change  Column Row Layer    Maximum-Flux-Residual          L2-NORM 
          0                 1           2             5    6     1      -0.2724350584E+00       5    6    1        -0.1499219528E+02      0.3677982018E+02
          0                 2           2             4    7     1      -0.1051689458E+00       4    7    1        -0.5514600159E+01      0.1261572319E+02
          0                 3           2             4    7     1       0.2785286648E-02       4    7    1         0.1516077064E+00      0.3165762500E+00
          0                 4           2             4    7     1      -0.1896679466E-03       4    7    1        -0.1062063930E-01      0.1998227461E-01
          0                 5           1             4    7     1       0.7547064123E-05       4    7    1         0.4347051899E-03      0.7751762916E-03

    ------------------------------------------------
       NWT REQUIRED            5 OUTER ITERATIONS 
       AND A TOTAL OF          9 INNER ITERATIONS.
    ------------------------------------------------

 NO OUTPUT CONTROL FOR STRESS PERIOD   21   TIME STEP   17
 
 SOLVING FOR HEAD 
                                                   Max.-Head-Change                         Max.-Flux-Residual
  Residual-Control   Outer-Iter.   Inner-Iter.     Column Row Layer    Maximum-Head-Change  Column Row Layer    Maximum-Flux-Residual          L2-NORM 
          0                 1           2             4    6     1      -0.2564250005E+00       5    6    1        -0.1395197705E+02      0.3466115825E+02
          0                 2           2             4    7     1      -0.1053621126E+00       4    7    1        -0.5522048872E+01      0.1275644726E+02
          0                 3           2             4    6     1      -0.5741253009E-02       5    6    1        -0.3070924358E+00      0.6810440097E+00
          0                 4           2             4    6     1       0.5584654319E-03       5    6    1         0.3061566718E-01      0.6645393847E-01
          0                 5           1             4    6     1      -0.3802949344E-04       4    6    1        -0.2139678561E-02      0.4621306670E-02

    ------------------------------------------------
       NWT REQUIRED            5 OUTER ITERATIONS 
       AND A TOTAL OF          9 INNER ITERATIONS.
    ------------------------------------------------

 NO OUTPUT CONTROL FOR STRESS PERIOD   21   TIME STEP   18
 
 SOLVING FOR HEAD 
                                                   Max.-Head-Change                         Max.-Flux-Residual
  Residual-Control   Outer-Iter.   Inner-Iter.     Column Row Layer    Maximum-Head-Change  Column Row Layer    Maximum-Flux-Residual          L2-NORM 
          0                 1           2             4    6     1      -0.2434002464E+00       4    6    1        -0.1318699597E+02      0.3264443699E+02
          0                 2           2             4    7     1      -0.1028307765E+00       4    7    1        -0.5387302154E+01      0.1254813312E+02
          0                 3           2             4    7     1       0.6598337325E-02       4    7    1         0.3559500800E+00      0.8031396994E+00
          0                 4           2             4    7     1      -0.4493233271E-03       4    7    1        -0.2492445200E-01      0.5561294883E-01
          0                 5           1             4    7     1       0.1787899076E-04       4    7    1         0.1019723464E-02      0.2266059635E-02

    ------------------------------------------------
       NWT REQUIRED            5 OUTER ITERATIONS 
       AND A TOTAL OF          9 INNER ITERATIONS.
    ------------------------------------------------

 NO OUTPUT CONTROL FOR STRESS PERIOD   21   TIME STEP   19
 
 SOLVING FOR HEAD 
                                                   Max.-Head-Change                         Max.-Flux-Residual
  Residual-Control   Outer-Iter.   Inner-Iter.     Column Row Layer    Maximum-Head-Change  Column Row Layer    Maximum-Flux-Residual          L2-NORM 
          0                 1           2             4    6     1      -0.2312533271E+00       4    6    1        -0.1252483554E+02      0.3079408325E+02
          0                 2           2             4    7     1      -0.1050140517E+00       4    7    1        -0.5499175303E+01      0.1292424206E+02
          0                 3           2             4    7     1       0.1541856205E-02       4    7    1         0.8406333961E-01      0.2024202662E+00
          0                 4           1             4    7     1      -0.1049947640E-03       4    7    1        -0.5891661224E-02      0.1173695764E-01
          0                 5           1             4    7     1       0.4177843846E-05       4    7    1         0.2412557203E-03      0.4281797599E-03

    ------------------------------------------------
       NWT REQUIRED            5 OUTER ITERATIONS 
       AND A TOTAL OF          8 INNER ITERATIONS.
    ------------------------------------------------

 NO OUTPUT CONTROL FOR STRESS PERIOD   21   TIME STEP   20
 
 SOLVING FOR HEAD 
                                                   Max.-Head-Change                         Max.-Flux-Residual
  Residual-Control   Outer-Iter.   Inner-Iter.     Column Row Layer    Maximum-Head-Change  Column Row Layer    Maximum-Flux-Residual          L2-NORM 
          0                 1           2             4    6     1      -0.2195274609E+00       4    6    1        -0.1188589799E+02      0.2902675886E+02
          0                 2           2             4    7     1      -0.1049066711E+00       4    7    1        -0.5491496661E+01      0.1300625626E+02
          0                 3           2             4    7     1       0.4261321978E-02       4    7    1         0.2299588453E+00      0.5230774034E+00
          0                 4           2             4    7     1      -0.2901806523E-03       4    7    1        -0.1610434018E-01      0.3587532994E-01
          0                 5           1             4    7     1       0.1154655759E-04       4    7    1         0.6589534378E-03      0.1455667717E-02

    ------------------------------------------------
       NWT REQUIRED            5 OUTER ITERATIONS 
       AND A TOTAL OF          9 INNER ITERATIONS.
    ------------------------------------------------

 NO OUTPUT CONTROL FOR STRESS PERIOD   21   TIME STEP   21
 
 SOLVING FOR HEAD 
                                                   Max.-Head-Change                         Max.-Flux-Residual
  Residual-Control   Outer-Iter.   Inner-Iter.     Column Row Layer    Maximum-Head-Change  Column Row Layer    Maximum-Flux-Residual          L2-NORM 
          0                 1           2             4    6     1      -0.2084015073E+00       4    6    1        -0.1127979682E+02      0.2737113171E+02
          0                 2           2             4    7     1      -0.1056868831E+00       5    8    1        -0.5536121604E+01      0.1319368074E+02
          0                 3           2             4    7     1       0.4030246870E-02       5    8    1         0.2183241135E+00      0.5017077756E+00
          0                 4           2             4    7     1      -0.2744452332E-03       5    8    1        -0.1531441672E-01      0.3444110386E-01
          0                 5           1             4    7     1       0.1092043107E-04       5    8    1         0.6276163131E-03      0.1398050247E-02

    ------------------------------------------------
       NWT REQUIRED            5 OUTER ITERATIONS 
       AND A TOTAL OF          9 INNER ITERATIONS.
    ------------------------------------------------

 NO OUTPUT CONTROL FOR STRESS PERIOD   21   TIME STEP   22
 
 SOLVING FOR HEAD 
                                                   Max.-Head-Change                         Max.-Flux-Residual
  Residual-Control   Outer-Iter.   Inner-Iter.     Column Row Layer    Maximum-Head-Change  Column Row Layer    Maximum-Flux-Residual          L2-NORM 
          0                 1           2             4    6     1      -0.1977684052E+00       4    6    1        -0.1070073516E+02      0.2580728624E+02
          0                 2           2             4    7     1      -0.1061736506E+00       5    8    1        -0.5608285435E+01      0.1333815225E+02
          0                 3           2             5    8     1       0.4896612098E-02       5    8    1         0.2692864936E+00      0.6197984104E+00
          0                 4           2             5    8     1      -0.3334425443E-03       5    8    1        -0.1888039384E-01      0.4291230323E-01
          0                 5           1             5    8     1       0.1326798346E-04       5    8    1         0.7734082524E-03      0.1748443583E-02

    ------------------------------------------------
       NWT REQUIRED            5 OUTER ITERATIONS 
       AND A TOTAL OF          9 INNER ITERATIONS.
    ------------------------------------------------

 NO OUTPUT CONTROL FOR STRESS PERIOD   21   TIME STEP   23
 
 SOLVING FOR HEAD 
                                                   Max.-Head-Change                         Max.-Flux-Residual
  Residual-Control   Outer-Iter.   Inner-Iter.     Column Row Layer    Maximum-Head-Change  Column Row Layer    Maximum-Flux-Residual          L2-NORM 
          0                 1           2             4    6     1      -0.1876318977E+00       4    6    1        -0.1014881788E+02      0.2433347543E+02
          0                 2           2             4    7     1      -0.1068006954E+00       5    8    1        -0.5683372692E+01      0.1349422672E+02
          0                 3           2             5    8     1       0.5420546751E-02       5    8    1         0.2982357746E+00      0.6868316537E+00
          0                 4           2             5    8     1      -0.3691208991E-03       5    8    1        -0.2090526834E-01      0.4770806120E-01
          0                 5           1             5    8     1       0.1468765759E-04       5    8    1         0.8561622005E-03      0.1946474630E-02

    ------------------------------------------------
       NWT REQUIRED            5 OUTER ITERATIONS 
       AND A TOTAL OF          9 INNER ITERATIONS.
    ------------------------------------------------

 NO OUTPUT CONTROL FOR STRESS PERIOD   21   TIME STEP   24
 
 SOLVING FOR HEAD 
                                                   Max.-Head-Change                         Max.-Flux-Residual
  Residual-Control   Outer-Iter.   Inner-Iter.     Column Row Layer    Maximum-Head-Change  Column Row Layer    Maximum-Flux-Residual          L2-NORM 
          0                 1           2             4    6     1      -0.1779551418E+00       4    6    1        -0.9622135716E+01      0.2294196506E+02
          0                 2           2             5    8     1      -0.1075095836E+00       5    8    1        -0.5753406343E+01      0.1364223449E+02
          0                 3           2             5    8     1       0.6074927070E-02       5    8    1         0.3343614222E+00      0.7721260217E+00
          0                 4           2             5    8     1      -0.4136822535E-03       5    8    1        -0.2343271825E-01      0.5376472334E-01
          0                 5           1             5    8     1       0.1646079279E-04       5    8    1         0.9594801832E-03      0.2195740377E-02

    ------------------------------------------------
       NWT REQUIRED            5 OUTER ITERATIONS 
       AND A TOTAL OF          9 INNER ITERATIONS.
    ------------------------------------------------

 NO OUTPUT CONTROL FOR STRESS PERIOD   21   TIME STEP   25
 
 SOLVING FOR HEAD 
                                                   Max.-Head-Change                         Max.-Flux-Residual
  Residual-Control   Outer-Iter.   Inner-Iter.     Column Row Layer    Maximum-Head-Change  Column Row Layer    Maximum-Flux-Residual          L2-NORM 
          0                 1           2             4    6     1      -0.1687175437E+00       4    6    1        -0.9119530427E+01      0.2162859793E+02
          0                 2           2             5    8     1      -0.1087635007E+00       5    8    1        -0.5821501720E+01      0.1378918305E+02
          0                 3           2             5    8     1       0.6669845048E-02       5    8    1         0.3672030998E+00      0.8501893731E+00
          0                 4           2             5    8     1      -0.4541944488E-03       5    8    1        -0.2573035789E-01      0.5929103706E-01
          0                 5           1             5    8     1       0.1807280853E-04       5    8    1         0.1053401572E-02      0.2422848373E-02

    ------------------------------------------------
       NWT REQUIRED            5 OUTER ITERATIONS 
       AND A TOTAL OF          9 INNER ITERATIONS.
    ------------------------------------------------

 NO OUTPUT CONTROL FOR STRESS PERIOD   21   TIME STEP   26
 
 SOLVING FOR HEAD 
                                                   Max.-Head-Change                         Max.-Flux-Residual
  Residual-Control   Outer-Iter.   Inner-Iter.     Column Row Layer    Maximum-Head-Change  Column Row Layer    Maximum-Flux-Residual          L2-NORM 
          0                 1           2             4    6     1      -0.1598948585E+00       4    6    1        -0.8639672011E+01      0.2038810330E+02
          0                 2           2             5    8     1      -0.1098928151E+00       5    8    1        -0.5882843858E+01      0.1392290180E+02
          0                 3           2             5    8     1       0.7108636315E-02       5    8    1         0.3914373976E+00      0.9078218906E+00
          0                 4           2             5    8     1      -0.4840749009E-03       5    8    1        -0.2742546245E-01      0.6336805283E-01
          0                 5           1             5    8     1       0.1926177789E-04       5    8    1         0.1122678826E-02      0.2590309342E-02

    ------------------------------------------------
       NWT REQUIRED            5 OUTER ITERATIONS 
       AND A TOTAL OF          9 INNER ITERATIONS.
    ------------------------------------------------

 NO OUTPUT CONTROL FOR STRESS PERIOD   21   TIME STEP   27
 
 SOLVING FOR HEAD 
                                                   Max.-Head-Change                         Max.-Flux-Residual
  Residual-Control   Outer-Iter.   Inner-Iter.     Column Row Layer    Maximum-Head-Change  Column Row Layer    Maximum-Flux-Residual          L2-NORM 
          0                 1           2             4    6     1      -0.1514641561E+00       4    6    1        -0.8181305382E+01      0.1921568963E+02
          0                 2           2             5    8     1      -0.1106327346E+00       5    8    1        -0.5923252801E+01      0.1400840729E+02
          0                 3           2             5    8     1       0.6902627893E-02       5    8    1         0.3801497682E+00      0.8792391749E+00
          0                 4           2             5    8     1      -0.4700463284E-03       5    8    1        -0.2663361088E-01      0.6138366366E-01
          0                 5           1             5    8     1       0.1870356859E-04       5    8    1         0.1090224408E-02      0.2509333259E-02

    ------------------------------------------------
       NWT REQUIRED            5 OUTER ITERATIONS 
       AND A TOTAL OF          9 INNER ITERATIONS.
    ------------------------------------------------

 NO OUTPUT CONTROL FOR STRESS PERIOD   21   TIME STEP   28
 
 SOLVING FOR HEAD 
                                                   Max.-Head-Change                         Max.-Flux-Residual
  Residual-Control   Outer-Iter.   Inner-Iter.     Column Row Layer    Maximum-Head-Change  Column Row Layer    Maximum-Flux-Residual          L2-NORM 
          0                 1           2             4    6     1      -0.1433999731E+00       4    6    1        -0.7743032826E+01      0.1810623291E+02
          0                 2           2             5    8     1      -0.1112329241E+00       5    8    1        -0.5956112710E+01      0.1407790891E+02
          0                 3           2             5    8     1       0.7057874010E-02       5    8    1         0.3887546731E+00      0.8993357135E+00
          0                 4           2             5    8     1      -0.4806181643E-03       5    8    1        -0.2723462345E-01      0.6281485556E-01
          0                 5           1             5    8     1       0.1912423080E-04       5    8    1         0.1114752587E-02      0.2568231305E-02

    ------------------------------------------------
       NWT REQUIRED            5 OUTER ITERATIONS 
       AND A TOTAL OF          9 INNER ITERATIONS.
    ------------------------------------------------

 NO OUTPUT CONTROL FOR STRESS PERIOD   21   TIME STEP   29
 
 SOLVING FOR HEAD 
                                                   Max.-Head-Change                         Max.-Flux-Residual
  Residual-Control   Outer-Iter.   Inner-Iter.     Column Row Layer    Maximum-Head-Change  Column Row Layer    Maximum-Flux-Residual          L2-NORM 
          0                 1           2             4    6     1      -0.1356921931E+00       4    6    1        -0.7324286167E+01      0.1705743914E+02
          0                 2           2             5    8     1      -0.1118355366E+00       5    8    1        -0.5989043075E+01      0.1414978591E+02
          0                 3           2             5    8     1       0.7082563343E-02       5    8    1         0.3901638343E+00      0.9020993592E+00
          0                 4           2             5    8     1      -0.4822994529E-03       5    8    1        -0.2733191247E-01      0.6302614772E-01
          0                 5           1             5    8     1       0.1919113087E-04       5    8    1         0.1118677961E-02      0.2577104297E-02

    ------------------------------------------------
       NWT REQUIRED            5 OUTER ITERATIONS 
       AND A TOTAL OF          9 INNER ITERATIONS.
    ------------------------------------------------

 NO OUTPUT CONTROL FOR STRESS PERIOD   21   TIME STEP   30



 STREAM LISTING     PERIOD     21   STEP       30

 LAYER ROW COL. STREAM  RCH.  FLOW INTO     FLOW TO   FLOW OUT OF   OVRLND.     DIRECT     STREAM       STREAM     STREAM     STREAM   STREAMBED  STREAMBED
                SEG.NO.  NO.  STRM. RCH.    AQUIFER    STRM. RCH.    RUNOFF     PRECIP       ET          HEAD       DEPTH      WIDTH   CONDCTNC.   GRADIENT

   1    1    1     1     1    1.3875E+01  1.7894E-01   1.3696E+01  0.000E+00  0.000E+00  0.000E+00  1.09404E+03  9.877E-01  9.972E+00  4.487E-02  1.329E+00
   1    2    2     1     2    1.3696E+01  2.7574E-01   1.3421E+01  0.000E+00  0.000E+00  0.000E+00  1.08904E+03  9.829E-01  9.890E+00  6.923E-02  1.328E+00
   1    3    3     1     3    1.3421E+01  2.3381E-01   1.3187E+01  0.000E+00  0.000E+00  0.000E+00  1.08340E+03  9.775E-01  9.797E+00  5.878E-02  1.326E+00
   1    3    4     1     4    1.3187E+01  2.1419E-01   1.2973E+01  0.000E+00  0.000E+00  0.000E+00  1.07838E+03  9.727E-01  9.715E+00  5.392E-02  1.324E+00
   1    4    5     2     1    1.0973E+01  2.9101E-01   1.0682E+01  0.000E+00  0.000E+00  0.000E+00  1.07266E+03  7.309E-01  1.200E+01  7.800E-02  1.244E+00
   1    5    6     2     2    1.0682E+01  2.2323E-01   1.0458E+01  0.000E+00  0.000E+00  0.000E+00  1.06723E+03  7.204E-01  1.200E+01  6.000E-02  1.240E+00
   1    6    6     2     3    1.0458E+01  2.2268E-01   1.0236E+01  0.000E+00  0.000E+00  0.000E+00  1.06250E+03  7.113E-01  1.200E+01  6.000E-02  1.237E+00
   1    7    6     2     4    1.0236E+01  2.2212E-01   1.0013E+01  0.000E+00  0.000E+00  0.000E+00  1.05778E+03  7.021E-01  1.200E+01  6.000E-02  1.234E+00
   1    8    6     2     5    1.0013E+01  2.2157E-01   9.7919E+00  0.000E+00  0.000E+00  0.000E+00  1.05305E+03  6.928E-01  1.200E+01  6.000E-02  1.231E+00
   1    3    5     3     1    2.0000E+00  2.8252E-01   1.7175E+00  0.000E+00  0.000E+00  0.000E+00  1.07555E+03  1.909E+00  9.636E+00  7.227E-02  1.955E+00
   1    3    6     3     2    1.7175E+00  2.4905E-01   1.4684E+00  0.000E+00  0.000E+00  0.000E+00  1.07264E+03  1.727E+00  8.909E+00  6.682E-02  1.864E+00
   1    3    7     3     3    1.4684E+00  1.9718E-01   1.2712E+00  0.000E+00  0.000E+00  0.000E+00  1.06987E+03  1.555E+00  8.218E+00  5.547E-02  1.777E+00
   1    4    8     3     4    1.2712E+00  2.2567E-01   1.0456E+00  0.000E+00  0.000E+00  0.000E+00  1.06682E+03  1.364E+00  7.455E+00  6.709E-02  1.682E+00
   1    5    8     3     5    1.0456E+00  1.5790E-01   8.8768E-01  0.000E+00  0.000E+00  0.000E+00  1.06362E+03  1.164E+00  6.655E+00  4.991E-02  1.582E+00
   1    6    8     3     6    8.8768E-01  5.5980E-02   8.3170E-01  0.000E+00  0.000E+00  0.000E+00  1.06158E+03  1.036E+00  6.145E+00  1.844E-02  1.518E+00
   1    5   10     4     1    1.0000E+01  9.0919E-02   9.9091E+00  0.000E+00  0.000E+00  0.000E+00  1.07836E+03  6.368E-01  1.000E+01  2.500E-02  1.212E+00
   1    5    9     4     2    9.9091E+00  1.8158E-01   9.7275E+00  0.000E+00  0.000E+00  0.000E+00  1.07154E+03  6.315E-01  1.000E+01  5.000E-02  1.211E+00
   1    6    8     4     3    9.7275E+00  1.2689E-01   9.6006E+00  0.000E+00  0.000E+00  0.000E+00  1.06381E+03  6.256E-01  1.000E+01  3.500E-02  1.209E+00
   1    6    8     5     1    1.0432E+01  2.2686E-01   1.0205E+01  0.000E+00  0.000E+00  0.000E+00  1.05868E+03  6.790E-01  1.542E+01  6.166E-02  1.226E+00
   1    7    7     5     2    1.0205E+01  2.7894E-01   9.9265E+00  0.000E+00  0.000E+00  0.000E+00  1.05417E+03  6.732E-01  1.519E+01  7.594E-02  1.224E+00
   1    8    7     5     3    9.9265E+00  1.9221E-01   9.7343E+00  0.000E+00  0.000E+00  0.000E+00  1.04992E+03  6.676E-01  1.497E+01  5.241E-02  1.223E+00
   1    8    6     5     4    9.7343E+00  1.3577E-01   9.5985E+00  0.000E+00  0.000E+00  0.000E+00  1.04691E+03  6.637E-01  1.482E+01  3.706E-02  1.221E+00
   1    9    6     6     1    9.5985E+00  2.2097E-01   9.3776E+00  0.000E+00  0.000E+00  0.000E+00  1.04341E+03  6.828E-01  1.200E+01  6.000E-02  1.228E+00
   1   10    7     6     2    9.3776E+00  2.2039E-01   9.1572E+00  0.000E+00  0.000E+00  0.000E+00  1.03885E+03  6.732E-01  1.200E+01  6.000E-02  1.224E+00
   1   11    7     6     3    9.1572E+00  2.1981E-01   8.9374E+00  0.000E+00  0.000E+00  0.000E+00  1.03430E+03  6.636E-01  1.200E+01  6.000E-02  1.221E+00
   1   12    7     6     4    8.9374E+00  2.1923E-01   8.7181E+00  0.000E+00  0.000E+00  0.000E+00  1.02974E+03  6.539E-01  1.200E+01  6.000E-02  1.218E+00
   1   13    7     6     5    8.7181E+00  3.1920E-04   8.7178E+00  0.000E+00  0.000E+00  0.000E+00  1.02656E+03  6.490E-01  1.200E+01  2.400E-02  4.433E-03
   1   14    9     7     1    1.5000E+02  1.3821E+00   1.4862E+02  0.000E+00  0.000E+00  0.000E+00  1.03987E+03  2.288E+00  5.529E+01  5.593E-01  8.237E-01
   1   13    8     7     2    1.4862E+02  1.9975E+00   1.4662E+02  0.000E+00  0.000E+00  0.000E+00  1.03478E+03  2.279E+00  5.525E+01  6.147E-01  1.083E+00
   1   13    7     7     3    1.4662E+02  1.7550E+00   1.4487E+02  0.000E+00  0.000E+00  0.000E+00  1.02969E+03  2.269E+00  5.521E+01  5.584E-01  1.048E+00
   1   13    6     8     1    1.5358E+02  1.1131E+00   1.5247E+02  0.000E+00  0.000E+00  0.000E+00  1.02471E+03  2.838E+00  4.115E+01  4.193E-01  8.848E-01
   1   13    5     8     2    1.5247E+02  3.7110E-01   1.5210E+02  0.000E+00  0.000E+00  0.000E+00  1.01846E+03  2.833E+00  4.108E+01  4.186E-01  2.955E-01
   1   13    4     8     3    1.5210E+02 -1.7379E+00   1.5384E+02  0.000E+00  0.000E+00  0.000E+00  1.01221E+03  2.838E+00  4.115E+01  4.193E+00 -1.382E-01
   1   13    3     8     4    1.5384E+02 -3.3068E+00   1.5714E+02  0.000E+00  0.000E+00  0.000E+00  1.00598E+03  2.855E+00  4.140E+01  4.219E+00 -2.613E-01
   1   13    2     8     5    1.5714E+02 -2.5001E+00   1.5964E+02  0.000E+00  0.000E+00  0.000E+00  9.99750E+02  2.875E+00  4.169E+01  4.248E+00 -1.962E-01
   1   13    1     8     6    1.5964E+02 -1.9622E+00   1.6161E+02  0.000E+00  0.000E+00  0.000E+00  9.94765E+02  2.890E+00  4.191E+01  2.562E+00 -2.553E-01
   1    8    6     9     1    9.7919E+00  0.0000E+00   9.7919E+00  0.000E+00  0.000E+00  0.000E+00  1.08099E+03  2.238E+00  4.000E+00  0.000E+00  1.746E+00
   1    8    5     9     2    9.7919E+00  0.0000E+00   9.7919E+00  0.000E+00  0.000E+00  0.000E+00  1.08049E+03  2.238E+00  4.000E+00  0.000E+00  1.746E+00





UNSATURATED ZONE PACKAGE VOLUMETRIC BUDGET FOR  TIME STEP    30 STRESS PERIOD   21
  ------------------------------------------------------------------------------



     CUMULATIVE VOLUMES      L**3       RATES FOR THIS TIME STEP      L**3/T
     ------------------                 ------------------------

           IN:                                      IN:
           ---                                      ---
        INFILTRATION =  4098511544.4754          INFILTRATION =          49.5712

          OUT:                                     OUT:
          ----                                     ----
              UZF ET =   824507823.4117                UZF ET =          49.5675
        UZF RECHARGE =  2947865699.4395          UZF RECHARGE =       0.0000E+00

            IN - OUT =   326138021.6242              IN - OUT =       3.6793E-03

          STORAGE:                                 STORAGE:
          --------                                 --------
      STORAGE CHANGE =   326131393.4668        STORAGE CHANGE =       3.6749E-03

 PERCENT DISCREPANCY IS DIFFERENCE BETWEEN IN-OUT MINUS CHANGE IN STORAGE
 DIVIDED BY THE AVERAGE OF IN AND OUT TIMES 100

 PERCENT DISCREPANCY =           0.00     PERCENT DISCREPANCY =           0.00






1
  VOLUMETRIC BUDGET FOR AGRICULTURAL FIELDS AT  END OF TIME STEP   30, STRESS PERIOD  21
  ------------------------------------------------------------------------------

     CUMULATIVE VOLUMES      L**3       RATES FOR THIS TIME STEP      L**3/T
     ------------------                 ------------------------

           IN:                                      IN:
           ---                                      ---
               AG WELLS  =  3556171008.0000                 AG WELLS  =          38.9315
      DIVERSION SEGMENTS =   497682848.0000        DIVERSION SEGMENTS =           9.7919
           GW IRRIGATION =           0.0000             GW IRRIGATION =           0.0000
           SW IRRIGATION =           0.0000             SW IRRIGATION =           0.0000
        SYSTEM LOSSES GW =           0.0000          SYSTEM LOSSES GW =           0.0000
        SYSTEM LOSSES SW =           0.0000          SYSTEM LOSSES SW =           0.0000

                TOTAL IN =  4053853952.0000                  TOTAL IN =          48.7235

          OUT:                                     OUT:
          ----                                     ----
               AG WELLS  =           0.0000                 AG WELLS  =           0.0000
      DIVERSION SEGMENTS =           0.0000        DIVERSION SEGMENTS =           0.0000
           GW IRRIGATION =  3556171008.0000             GW IRRIGATION =          38.9315
           SW IRRIGATION =   497691744.0000             SW IRRIGATION =           9.7921
        SYSTEM LOSSES GW =           0.0000          SYSTEM LOSSES GW =           0.0000
        SYSTEM LOSSES SW =           0.0000          SYSTEM LOSSES SW =           0.0000

               TOTAL OUT =  4053862656.0000                 TOTAL OUT =          48.7237

                IN - OUT =       -8704.0000                  IN - OUT =      -1.9455E-04

     PERCENT DISCREPANCY =          -0.00         PERCENT DISCREPANCY =          -0.00



1
  VOLUMETRIC BUDGET FOR ENTIRE MODEL AT END OF TIME STEP   30, STRESS PERIOD  21
  ------------------------------------------------------------------------------

     CUMULATIVE VOLUMES      L**3       RATES FOR THIS TIME STEP      L**3/T
     ------------------                 ------------------------

           IN:                                      IN:
           ---                                      ---
             STORAGE     =  3420010752.0000               STORAGE     =          75.3503
       CONSTANT HEAD     =           0.0000         CONSTANT HEAD     =           0.0000
     HEAD DEP BOUNDS     =    15181690.0000       HEAD DEP BOUNDS     =           0.2889
      STREAM LEAKAGE     =   626979840.0000        STREAM LEAKAGE     =          11.9843
        UZF RECHARGE     =  2947866112.0000          UZF RECHARGE     =           0.0000
               GW ET     =           0.0000                 GW ET     =           0.0000
     SURFACE LEAKAGE     =           0.0000       SURFACE LEAKAGE     =           0.0000
           AG WELLS      =           0.0000             AG WELLS      =           0.0000

                TOTAL IN =  7010038272.0000                  TOTAL IN =          87.6235

          OUT:                                     OUT:
          ----                                     ----
             STORAGE     =  2912164096.0000               STORAGE     =          38.8989
       CONSTANT HEAD     =           0.0000         CONSTANT HEAD     =           0.0000
     HEAD DEP BOUNDS     =    15146298.0000       HEAD DEP BOUNDS     =           0.2862
      STREAM LEAKAGE     =   526493056.0000        STREAM LEAKAGE     =           9.5070
        UZF RECHARGE     =           0.0000          UZF RECHARGE     =           0.0000
               GW ET     =           0.0000                 GW ET     =           0.0000
     SURFACE LEAKAGE     =           0.0000       SURFACE LEAKAGE     =           0.0000
           AG WELLS      =  3556171008.0000             AG WELLS      =          38.9315

               TOTAL OUT =  7009974272.0000                 TOTAL OUT =          87.6236

                IN - OUT =       64000.0000                  IN - OUT =      -7.6294E-05

     PERCENT DISCREPANCY =           0.00         PERCENT DISCREPANCY =          -0.00






         TIME SUMMARY AT END OF TIME STEP   30 IN STRESS PERIOD   21
                    SECONDS     MINUTES      HOURS       DAYS        YEARS
                    -----------------------------------------------------------
   TIME STEP LENGTH  87667.      1461.1      24.352      1.0147     2.77799E-03
 STRESS PERIOD TIME 2.63000E+06  43833.      730.56      30.440     8.33397E-02
         TOTAL TIME 5.26866E+07 8.78110E+05  14635.      609.80      1.6695    
1
1
                            STRESS PERIOD NO.   22, LENGTH =   2630000.    
                            -----------------------------------------------

                              NUMBER OF TIME STEPS =    30

                               MULTIPLIER FOR DELT =     1.000

                            INITIAL TIME STEP SIZE =   87666.66    

 REUSING NON-PARAMETER GHB CELLS FROM LAST STRESS PERIOD

      2 GHB CELLS

 REUSING STREAM SEGMENT DATA FROM LAST STRESS PERIOD



            AREAL INFILTRATION RATE
 READING ON UNIT   19 WITH FORMAT: (FREE)              

            1           2           3           4           5           6           7           8           9          10
 ........................................................................................................................
   1   1.0000E-10  2.0000E-10   0.000       0.000       0.000       0.000       0.000       0.000       0.000       0.000    
   2   2.0000E-10  1.0000E-10  2.0000E-10   0.000       0.000      8.0000E-10  8.0000E-10  5.0000E-10   0.000       0.000    
   3    0.000      5.0000E-10  1.0000E-10  1.0000E-10  8.0000E-10  8.0000E-10  5.0000E-10  5.0000E-10   0.000       0.000    
   4   8.0000E-10  5.0000E-10  1.0000E-10  1.0000E-10  1.0000E-10  1.0000E-10  1.0000E-10  1.0000E-10  2.0000E-10   0.000    
   5   8.0000E-10  5.0000E-10  1.0000E-10  1.0000E-10  1.0000E-10  1.0000E-10  1.0000E-10  1.0000E-10  1.0000E-10  1.0000E-10
   6   8.0000E-10  5.0000E-10  5.0000E-10  2.0000E-10  2.0000E-10  1.0000E-10  1.0000E-10  1.0000E-10  1.0000E-10  5.0000E-10
   7   8.0000E-10  5.0000E-10  5.0000E-10  2.0000E-10  2.0000E-10  1.0000E-10  1.0000E-10  2.0000E-10  2.0000E-10   0.000    
   8    0.000      5.0000E-10  5.0000E-10  2.0000E-10  2.0000E-10  1.0000E-10  1.0000E-10  2.0000E-10  5.0000E-10   0.000    
   9    0.000      5.0000E-10  5.0000E-10  2.0000E-10  2.0000E-10  1.0000E-10  1.0000E-10  2.0000E-10  5.0000E-10   0.000    
  10    0.000      5.0000E-10  5.0000E-10  2.0000E-10  2.0000E-10  1.0000E-10  1.0000E-10  2.0000E-10  5.0000E-10  8.0000E-10
  11    0.000      1.0000E-10  1.0000E-10  1.0000E-10  1.0000E-10  1.0000E-10  1.0000E-10  2.0000E-10  5.0000E-10   0.000    
  12   1.0000E-10  1.0000E-10  1.0000E-10  1.0000E-10  1.0000E-10  1.0000E-10  1.0000E-10  1.0000E-10  2.0000E-10   0.000    
  13   1.0000E-10  1.0000E-10  2.0000E-10  2.0000E-10  2.0000E-10  2.0000E-10  2.0000E-10  1.0000E-10  1.0000E-10   0.000    
  14    0.000      2.0000E-10  5.0000E-10  5.0000E-10  5.0000E-10  5.0000E-10  5.0000E-10  2.0000E-10  1.0000E-10   0.000    
  15    0.000       0.000      8.0000E-10  8.0000E-10  8.0000E-10  8.0000E-10   0.000       0.000       0.000       0.000    

                  ET RATE =  7.500000E-08

 USING ET EXTINCTION DEPTH FROM PREVIOUS STRESS PERIOD. CURRENT PERIOD IS:      22

 USING EXTINCTION WATER CONTENT FROM PREVIOUS STRESS PERIOD. CURRENT PERIOD IS:      22

 USING AIR ENTRY PRESSURE FROM PREVIOUS STRESS PERIOD. CURRENT PERIOD IS:      22

 USING ROOT PRESSURE HEAD FROM PREVIOUS STRESS PERIOD. CURRENT PERIOD IS:      22

 USING ROOT ACTIVITY FROM PREVIOUS STRESS PERIOD. CURRENT PERIOD IS:      22

 PROCESSING AG STRESS PERIOD DATA

 READING AG STRESS PERIOD DATA

 READING IRRIGATION SEGMENT

 READING IRRIGATION WELL

 READING SUPPLEMENTAL WELL

 END PROCESSING AG STRESS PERIOD DATA OPTIONS
 
 SOLVING FOR HEAD 
                                                   Max.-Head-Change                         Max.-Flux-Residual
  Residual-Control   Outer-Iter.   Inner-Iter.     Column Row Layer    Maximum-Head-Change  Column Row Layer    Maximum-Flux-Residual          L2-NORM 
          0                 1           2             4    6     1      -0.1283196806E+00       4    6    1        -0.6923905304E+01      0.1605345831E+02
          0                 2           2             5    8     1      -0.1148818028E-01       5    8    1        -0.6136343105E+00      0.1406698274E+01
          0                 3           2             5    8     1       0.1117474803E-02       5    8    1         0.6160692510E-01      0.1210814833E+00
          0                 4           1             5    8     1      -0.7609912466E-04       5    8    1        -0.4329254618E-02      0.7500361024E-02

    ------------------------------------------------
       NWT REQUIRED            4 OUTER ITERATIONS 
       AND A TOTAL OF          7 INNER ITERATIONS.
    ------------------------------------------------

 NO OUTPUT CONTROL FOR STRESS PERIOD   22   TIME STEP    1
 
 SOLVING FOR HEAD 
                                                   Max.-Head-Change                         Max.-Flux-Residual
  Residual-Control   Outer-Iter.   Inner-Iter.     Column Row Layer    Maximum-Head-Change  Column Row Layer    Maximum-Flux-Residual          L2-NORM 
          0                 1           2             4    6     1      -0.1233008405E+00       4    6    1        -0.6650510220E+01      0.1543642658E+02
          0                 2           2             5    8     1      -0.1465104831E-01       5    8    1        -0.7832784387E+00      0.1711500241E+01
          0                 3           2             5    8     1       0.5953913431E-02       5    8    1         0.3279891911E+00      0.7511103318E+00
          0                 4           2             5    8     1      -0.4054416550E-03       5    8    1        -0.2297888166E-01      0.5245423435E-01
          0                 5           1             5    8     1       0.1613289143E-04       5    8    1         0.9406096074E-03      0.2144541056E-02

    ------------------------------------------------
       NWT REQUIRED            5 OUTER ITERATIONS 
       AND A TOTAL OF          9 INNER ITERATIONS.
    ------------------------------------------------

 NO OUTPUT CONTROL FOR STRESS PERIOD   22   TIME STEP    2
 
 SOLVING FOR HEAD 
                                                   Max.-Head-Change                         Max.-Flux-Residual
  Residual-Control   Outer-Iter.   Inner-Iter.     Column Row Layer    Maximum-Head-Change  Column Row Layer    Maximum-Flux-Residual          L2-NORM 
          0                 1           2             4    6     1      -0.1185450276E+00       4    6    1        -0.6391532586E+01      0.1485320588E+02
          0                 2           2             5    8     1      -0.1285140762E-01       5    8    1        -0.6870468075E+00      0.1513631490E+01
          0                 3           2             5    8     1       0.1680811992E-02       5    8    1         0.9265233189E-01      0.1869088785E+00
          0                 4           1             5    8     1      -0.1144572417E-03       5    8    1        -0.6501329085E-02      0.1254808355E-01
          0                 5           1             5    8     1       0.4554361525E-05       5    8    1         0.2665256027E-03      0.5039771368E-03

    ------------------------------------------------
       NWT REQUIRED            5 OUTER ITERATIONS 
       AND A TOTAL OF          8 INNER ITERATIONS.
    ------------------------------------------------

 NO OUTPUT CONTROL FOR STRESS PERIOD   22   TIME STEP    3
 
 SOLVING FOR HEAD 
                                                   Max.-Head-Change                         Max.-Flux-Residual
  Residual-Control   Outer-Iter.   Inner-Iter.     Column Row Layer    Maximum-Head-Change  Column Row Layer    Maximum-Flux-Residual          L2-NORM 
          0                 1           2             4    6     1      -0.1139624051E+00       4    6    1        -0.6142118685E+01      0.1429167028E+02
          0                 2           2             5    8     1      -0.1311433016E-01       5    8    1        -0.7013142430E+00      0.1524988239E+01
          0                 3           2             4    7     1      -0.1895195822E+01       4    6    1        -0.9904213881E+02      0.2425609438E+03
          0                 4           2             4    7     1       0.1842918247E+00       4    7    1         0.9899995451E+01      0.2423372426E+02
          0                 5           2             4    7     1      -0.1255016945E-01       4    7    1        -0.6930448700E+00      0.1696809187E+01
          0                 6           2             4    7     1       0.4993802040E-03       4    7    1         0.2834581070E-01      0.6940854656E-01
          0                 7           1             4    7     1      -0.6157578743E-05       4    7    1        -0.3592339585E-03      0.8797667667E-03

    ------------------------------------------------
       NWT REQUIRED            7 OUTER ITERATIONS 
       AND A TOTAL OF         13 INNER ITERATIONS.
    ------------------------------------------------

 NO OUTPUT CONTROL FOR STRESS PERIOD   22   TIME STEP    4
 
 SOLVING FOR HEAD 
                                                   Max.-Head-Change                         Max.-Flux-Residual
  Residual-Control   Outer-Iter.   Inner-Iter.     Column Row Layer    Maximum-Head-Change  Column Row Layer    Maximum-Flux-Residual          L2-NORM 
          0                 1           2             4    7     1      -0.8969492943E-01       4    7    1        -0.4783156081E+01      0.8965986003E+01
          0                 2           2             4    7     1       0.8724417213E-02       4    7    1         0.4782850576E+00      0.8965474924E+00
          0                 3           2             4    7     1      -0.5941048986E-03       4    7    1        -0.3348025743E-01      0.6275771556E-01
          0                 4           1             4    7     1       0.2363996828E-04       4    7    1         0.1369343097E-02      0.2566773129E-02

    ------------------------------------------------
       NWT REQUIRED            4 OUTER ITERATIONS 
       AND A TOTAL OF          7 INNER ITERATIONS.
    ------------------------------------------------

 NO OUTPUT CONTROL FOR STRESS PERIOD   22   TIME STEP    5
 
 SOLVING FOR HEAD 
                                                   Max.-Head-Change                         Max.-Flux-Residual
  Residual-Control   Outer-Iter.   Inner-Iter.     Column Row Layer    Maximum-Head-Change  Column Row Layer    Maximum-Flux-Residual          L2-NORM 
          0                 1           2             4    7     1      -0.8737439616E-01       4    7    1        -0.4660527749E+01      0.8676038127E+01
          0                 2           2             4    7     1       0.8498712568E-02       4    7    1         0.4660235207E+00      0.8675574272E+00
          0                 3           2             4    7     1      -0.5787350563E-03       4    7    1        -0.3262193721E-01      0.6072847089E-01
          0                 4           1             4    7     1       0.2302838859E-04       4    7    1         0.1334237795E-02      0.2483730247E-02

    ------------------------------------------------
       NWT REQUIRED            4 OUTER ITERATIONS 
       AND A TOTAL OF          7 INNER ITERATIONS.
    ------------------------------------------------

 NO OUTPUT CONTROL FOR STRESS PERIOD   22   TIME STEP    6
 
 SOLVING FOR HEAD 
                                                   Max.-Head-Change                         Max.-Flux-Residual
  Residual-Control   Outer-Iter.   Inner-Iter.     Column Row Layer    Maximum-Head-Change  Column Row Layer    Maximum-Flux-Residual          L2-NORM 
          0                 1           2             4    7     1      -0.8509576562E-01       4    7    1        -0.4539955313E+01      0.8400953802E+01
          0                 2           2             4    7     1       0.8277083325E-02       4    7    1         0.4539675592E+00      0.8400529105E+00
          0                 3           2             4    7     1      -0.5636427376E-03       4    7    1        -0.3177800743E-01      0.5880325396E-01
          0                 4           1             4    7     1       0.2242785241E-04       4    7    1         0.1299721092E-02      0.2405032019E-02

    ------------------------------------------------
       NWT REQUIRED            4 OUTER ITERATIONS 
       AND A TOTAL OF          7 INNER ITERATIONS.
    ------------------------------------------------

 NO OUTPUT CONTROL FOR STRESS PERIOD   22   TIME STEP    7
 
 SOLVING FOR HEAD 
                                                   Max.-Head-Change                         Max.-Flux-Residual
  Residual-Control   Outer-Iter.   Inner-Iter.     Column Row Layer    Maximum-Head-Change  Column Row Layer    Maximum-Flux-Residual          L2-NORM 
          0                 1           2             4    7     1      -0.8286083048E-01       4    7    1        -0.4421555675E+01      0.8139450379E+01
          0                 2           2             3    7     1      -0.5542459810E-02       5    8    1        -0.2896001828E+00      0.6308713628E+00
          0                 3           2             5    8     1       0.4211259236E-02       5    8    1         0.2387259464E+00      0.5424787986E+00
          0                 4           2             4    7     1      -0.1276336742E-01       5    6    1        -0.7066217911E+00      0.1734074476E+01
          0                 5           2             4    7     1       0.1214987671E-01       5    7    1         0.6899486074E+00      0.1681170061E+01
          0                 6           2             4    7     1      -0.2105412970E+00       5    7    1        -0.1228200688E+02      0.3007633421E+02
          0                 7           2             5    8     1      -0.8237693161E-02       5    8    1        -0.5157245706E+00      0.6526021838E+00
          0                 8           1             5    8     1      -0.3398779965E-03       5    8    1        -0.2141813242E-01      0.2217320459E-01
          0                 9           1             5    8     1      -0.1401871067E-04       5    8    1        -0.8854704333E-03      0.8892954569E-03

    ------------------------------------------------
       NWT REQUIRED            9 OUTER ITERATIONS 
       AND A TOTAL OF         16 INNER ITERATIONS.
    ------------------------------------------------

 NO OUTPUT CONTROL FOR STRESS PERIOD   22   TIME STEP    8
 
 SOLVING FOR HEAD 
                                                   Max.-Head-Change                         Max.-Flux-Residual
  Residual-Control   Outer-Iter.   Inner-Iter.     Column Row Layer    Maximum-Head-Change  Column Row Layer    Maximum-Flux-Residual          L2-NORM 
          0                 1           2             4    7     1      -0.7924938399E-01       4    7    1        -0.4236609456E+01      0.7455526899E+01
          0                 2           2             4    7     1       0.7708420223E-02       4    7    1         0.4236348941E+00      0.7455170515E+00
          0                 3           2             4    7     1      -0.5249185913E-03       4    7    1        -0.2965470178E-01      0.5218572483E-01
          0                 4           1             4    7     1       0.2088698414E-04       4    7    1         0.1212877867E-02      0.2134365844E-02

    ------------------------------------------------
       NWT REQUIRED            4 OUTER ITERATIONS 
       AND A TOTAL OF          7 INNER ITERATIONS.
    ------------------------------------------------

 NO OUTPUT CONTROL FOR STRESS PERIOD   22   TIME STEP    9
 
 SOLVING FOR HEAD 
                                                   Max.-Head-Change                         Max.-Flux-Residual
  Residual-Control   Outer-Iter.   Inner-Iter.     Column Row Layer    Maximum-Head-Change  Column Row Layer    Maximum-Flux-Residual          L2-NORM 
          0                 1           2             4    7     1      -0.7701774409E-01       4    7    1        -0.4117779819E+01      0.7223450260E+01
          0                 2           2             4    7     1       0.7491362682E-02       4    7    1         0.4117532849E+00      0.7223124456E+00
          0                 3           2             4    7     1      -0.5101375818E-03       4    7    1        -0.2882297605E-01      0.5056145708E-01
          0                 4           1             4    7     1       0.2029883430E-04       4    7    1         0.1178860280E-02      0.2067921293E-02

    ------------------------------------------------
       NWT REQUIRED            4 OUTER ITERATIONS 
       AND A TOTAL OF          7 INNER ITERATIONS.
    ------------------------------------------------

 NO OUTPUT CONTROL FOR STRESS PERIOD   22   TIME STEP   10
 
 SOLVING FOR HEAD 
                                                   Max.-Head-Change                         Max.-Flux-Residual
  Residual-Control   Outer-Iter.   Inner-Iter.     Column Row Layer    Maximum-Head-Change  Column Row Layer    Maximum-Flux-Residual          L2-NORM 
          0                 1           2             4    7     1      -0.7484130250E-01       4    7    1        -0.4001802370E+01      0.7002833760E+01
          0                 2           2             4    7     1       0.7279673460E-02       4    7    1         0.4001568339E+00      0.7002535566E+00
          0                 3           2             4    7     1      -0.4957221434E-03       4    7    1        -0.2801121191E-01      0.4901743103E-01
          0                 4           1             4    7     1       0.1972523176E-04       4    7    1         0.1145659139E-02      0.2004782063E-02

    ------------------------------------------------
       NWT REQUIRED            4 OUTER ITERATIONS 
       AND A TOTAL OF          7 INNER ITERATIONS.
    ------------------------------------------------

 NO OUTPUT CONTROL FOR STRESS PERIOD   22   TIME STEP   11
 
 SOLVING FOR HEAD 
                                                   Max.-Head-Change                         Max.-Flux-Residual
  Residual-Control   Outer-Iter.   Inner-Iter.     Column Row Layer    Maximum-Head-Change  Column Row Layer    Maximum-Flux-Residual          L2-NORM 
          0                 1           2             4    7     1      -0.7272081671E-01       4    7    1        -0.3888731402E+01      0.6792740224E+01
          0                 2           2             4    7     1       0.6744109675E-02       4    7    1         0.3711618048E+00      0.6536007817E+00
          0                 3           2             4    7     1      -0.4679342974E-03       4    7    1        -0.2646094840E-01      0.4652038828E-01
          0                 4           2             4    7     1      -0.7332361981E-02       5    8    1        -0.4061326668E+00      0.9985082175E+00
          0                 5           2             4    7     1      -0.4589513350E+00       5    8    1        -0.2535293610E+02      0.6207768313E+02
          0                 6           2             4    7     1       0.2643198311E-01       5    7    1         0.1511535537E+01      0.3446695292E+01
          0                 7           2             4    7     1      -0.3264296259E-03       5    7    1        -0.1953410166E-01      0.4471161594E-01
          0                 8           1             4    7     1      -0.4794736007E-05       5    7    1        -0.2869224818E-03      0.6567322840E-03

    ------------------------------------------------
       NWT REQUIRED            8 OUTER ITERATIONS 
       AND A TOTAL OF         15 INNER ITERATIONS.
    ------------------------------------------------

 NO OUTPUT CONTROL FOR STRESS PERIOD   22   TIME STEP   12
 
 SOLVING FOR HEAD 
                                                   Max.-Head-Change                         Max.-Flux-Residual
  Residual-Control   Outer-Iter.   Inner-Iter.     Column Row Layer    Maximum-Head-Change  Column Row Layer    Maximum-Flux-Residual          L2-NORM 
          0                 1           2             4    7     1      -0.6774895194E-01       4    7    1        -0.3637889961E+01      0.5901982561E+01
          0                 2           2             5    8     1      -0.3636232741E-01       5    8    1        -0.2006484597E+01      0.4345021066E+01
          0                 3           2             4    8     1       0.2025150247E-01       5    6    1         0.1111352965E+01      0.2668509981E+01
          0                 4           2             4    8     1      -0.1379071032E-02       5    6    1        -0.7781294653E-01      0.1769598759E+00
          0                 5           1             4    8     1       0.5487433470E-04       5    7    1         0.3186243670E-02      0.7058820930E-02

    ------------------------------------------------
       NWT REQUIRED            5 OUTER ITERATIONS 
       AND A TOTAL OF          9 INNER ITERATIONS.
    ------------------------------------------------

 NO OUTPUT CONTROL FOR STRESS PERIOD   22   TIME STEP   13
 
 SOLVING FOR HEAD 
                                                   Max.-Head-Change                         Max.-Flux-Residual
  Residual-Control   Outer-Iter.   Inner-Iter.     Column Row Layer    Maximum-Head-Change  Column Row Layer    Maximum-Flux-Residual          L2-NORM 
          0                 1           2             4    7     1      -0.6544825108E-01       4    7    1        -0.3514918338E+01      0.5685562644E+01
          0                 2           2             4    7     1       0.6366046729E-02       4    7    1         0.3514724478E+00      0.5685324725E+00
          0                 3           2             4    7     1      -0.4335067584E-03       4    7    1        -0.2460325465E-01      0.3979673012E-01
          0                 4           1             4    7     1       0.1724962639E-04       4    7    1         0.1006273667E-02      0.1627646470E-02

    ------------------------------------------------
       NWT REQUIRED            4 OUTER ITERATIONS 
       AND A TOTAL OF          7 INNER ITERATIONS.
    ------------------------------------------------

 NO OUTPUT CONTROL FOR STRESS PERIOD   22   TIME STEP   14
 
 SOLVING FOR HEAD 
                                                   Max.-Head-Change                         Max.-Flux-Residual
  Residual-Control   Outer-Iter.   Inner-Iter.     Column Row Layer    Maximum-Head-Change  Column Row Layer    Maximum-Flux-Residual          L2-NORM 
          0                 1           2             4    7     1      -0.6332168122E-01       4    7    1        -0.3400652543E+01      0.5498442271E+01
          0                 2           2             4    7     1       0.6159207624E-02       4    7    1         0.3400471094E+00      0.5498108044E+00
          0                 3           2             4    7     1      -0.4194217971E-03       4    7    1        -0.2380347951E-01      0.3848630880E-01
          0                 4           1             4    7     1       0.1668917326E-04       4    7    1         0.9735628755E-03      0.1574047284E-02

    ------------------------------------------------
       NWT REQUIRED            4 OUTER ITERATIONS 
       AND A TOTAL OF          7 INNER ITERATIONS.
    ------------------------------------------------

 NO OUTPUT CONTROL FOR STRESS PERIOD   22   TIME STEP   15
 
 SOLVING FOR HEAD 
                                                   Max.-Head-Change                         Max.-Flux-Residual
  Residual-Control   Outer-Iter.   Inner-Iter.     Column Row Layer    Maximum-Head-Change  Column Row Layer    Maximum-Flux-Residual          L2-NORM 
          0                 1           2             4    7     1      -0.6126588597E-01       4    7    1        -0.3290153440E+01      0.5321969979E+01
          0                 2           2             4    7     1       0.5959252061E-02       4    7    1         0.3289983754E+00      0.5321774003E+00
          0                 3           2             4    7     1      -0.4058053982E-03       4    7    1        -0.2303005678E-01      0.3725204006E-01
          0                 4           1             4    7     1       0.1614736469E-04       4    7    1         0.9419298892E-03      0.1523582333E-02

    ------------------------------------------------
       NWT REQUIRED            4 OUTER ITERATIONS 
       AND A TOTAL OF          7 INNER ITERATIONS.
    ------------------------------------------------

 NO OUTPUT CONTROL FOR STRESS PERIOD   22   TIME STEP   16
 
 SOLVING FOR HEAD 
                                                   Max.-Head-Change                         Max.-Flux-Residual
  Residual-Control   Outer-Iter.   Inner-Iter.     Column Row Layer    Maximum-Head-Change  Column Row Layer    Maximum-Flux-Residual          L2-NORM 
          0                 1           2             4    7     1      -0.5927920085E-01       4    7    1        -0.3183338851E+01      0.5155223936E+01
          0                 2           2             5    8     1      -0.3443874103E-01       5    8    1        -0.1899030222E+01      0.4180373927E+01
          0                 3           2             4    8     1       0.2013486644E-01       5    6    1         0.1102485230E+01      0.2653997080E+01
          0                 4           2             4    8     1      -0.1371128326E-02       5    6    1        -0.7719254611E-01      0.1760307724E+00
          0                 5           1             4    8     1       0.5455828883E-04       5    7    1         0.3170576214E-02      0.7022433950E-02

    ------------------------------------------------
       NWT REQUIRED            5 OUTER ITERATIONS 
       AND A TOTAL OF          9 INNER ITERATIONS.
    ------------------------------------------------

 NO OUTPUT CONTROL FOR STRESS PERIOD   22   TIME STEP   17
 
 SOLVING FOR HEAD 
                                                   Max.-Head-Change                         Max.-Flux-Residual
  Residual-Control   Outer-Iter.   Inner-Iter.     Column Row Layer    Maximum-Head-Change  Column Row Layer    Maximum-Flux-Residual          L2-NORM 
          0                 1           2             4    7     1      -0.5725947010E-01       4    7    1        -0.3075262805E+01      0.4978013695E+01
          0                 2           2             5    8     1      -0.1841041566E-01       5    8    1        -0.1017061170E+01      0.2069607745E+01
          0                 3           2             5    6     1       0.4657885023E-02       5    6    1         0.2572333052E+00      0.5960428467E+00
          0                 4           2             5    6     1      -0.3171861111E-03       5    6    1        -0.1801118561E-01      0.3951968628E-01
          0                 5           1             5    6     1       0.1262110887E-04       5    6    1         0.7368465654E-03      0.1576457455E-02

    ------------------------------------------------
       NWT REQUIRED            5 OUTER ITERATIONS 
       AND A TOTAL OF          9 INNER ITERATIONS.
    ------------------------------------------------

 NO OUTPUT CONTROL FOR STRESS PERIOD   22   TIME STEP   18
 
 SOLVING FOR HEAD 
                                                   Max.-Head-Change                         Max.-Flux-Residual
  Residual-Control   Outer-Iter.   Inner-Iter.     Column Row Layer    Maximum-Head-Change  Column Row Layer    Maximum-Flux-Residual          L2-NORM 
          0                 1           2             4    7     1      -0.5531236723E-01       4    7    1        -0.2970976233E+01      0.4810965026E+01
          0                 2           2             5    8     1      -0.1832917990E-01       5    8    1        -0.1012325714E+01      0.2075036833E+01
          0                 3           2             5    6     1       0.2431268008E-02       5    6    1         0.1344250389E+00      0.2972608099E+00
          0                 4           2             5    6     1      -0.1655607337E-03       5    6    1        -0.9412727286E-02      0.1975727729E-01
          0                 5           1             5    6     1       0.6587807026E-05       5    6    1         0.3850977546E-03      0.7892323093E-03

    ------------------------------------------------
       NWT REQUIRED            5 OUTER ITERATIONS 
       AND A TOTAL OF          9 INNER ITERATIONS.
    ------------------------------------------------

 NO OUTPUT CONTROL FOR STRESS PERIOD   22   TIME STEP   19
 
 SOLVING FOR HEAD 
                                                   Max.-Head-Change                         Max.-Flux-Residual
  Residual-Control   Outer-Iter.   Inner-Iter.     Column Row Layer    Maximum-Head-Change  Column Row Layer    Maximum-Flux-Residual          L2-NORM 
          0                 1           2             4    7     1      -0.5341003275E-01       4    7    1        -0.2869139232E+01      0.4648226639E+01
          0                 2           2             5    8     1      -0.1826104905E-01       5    8    1        -0.1008342041E+01      0.2081156930E+01
          0                 3           2             5    6     1       0.1731371636E-02       5    6    1         0.9581132799E-01      0.2044524685E+00
          0                 4           2             5    6     1      -0.1179001947E-03       5    6    1        -0.6709170550E-02      0.1361399983E-01
          0                 5           1             5    6     1       0.4691353123E-05       5    6    1         0.2744990575E-03      0.5444225952E-03

    ------------------------------------------------
       NWT REQUIRED            5 OUTER ITERATIONS 
       AND A TOTAL OF          9 INNER ITERATIONS.
    ------------------------------------------------

 NO OUTPUT CONTROL FOR STRESS PERIOD   22   TIME STEP   20
 
 SOLVING FOR HEAD 
                                                   Max.-Head-Change                         Max.-Flux-Residual
  Residual-Control   Outer-Iter.   Inner-Iter.     Column Row Layer    Maximum-Head-Change  Column Row Layer    Maximum-Flux-Residual          L2-NORM 
          0                 1           2             4    7     1      -0.5155965426E-01       4    7    1        -0.2770087975E+01      0.4491225411E+01
          0                 2           2             5    8     1      -0.1840159640E-01       5    8    1        -0.1015859372E+01      0.2113928272E+01
          0                 3           2             4    7     1      -0.1894845088E+01       4    7    1        -0.9899985461E+02      0.2424661366E+03
          0                 4           2             4    7     1       0.1842260642E+00       4    8    1         0.9925634996E+01      0.2300150543E+02
          0                 5           2             4    7     1      -0.1254568248E-01       4    8    1        -0.6974945120E+00      0.1563373749E+01
          0                 6           2             4    7     1       0.4992016696E-03       4    8    1         0.2862940379E-01      0.6314004495E-01
          0                 7           1             4    7     1      -0.6155378099E-05       4    8    1        -0.3640847317E-03      0.8034175921E-03

    ------------------------------------------------
       NWT REQUIRED            7 OUTER ITERATIONS 
       AND A TOTAL OF         13 INNER ITERATIONS.
    ------------------------------------------------

 NO OUTPUT CONTROL FOR STRESS PERIOD   22   TIME STEP   21
 
 SOLVING FOR HEAD 
                                                   Max.-Head-Change                         Max.-Flux-Residual
  Residual-Control   Outer-Iter.   Inner-Iter.     Column Row Layer    Maximum-Head-Change  Column Row Layer    Maximum-Flux-Residual          L2-NORM 
          0                 1           2             5    8     1       0.6619554863E-01       5    8    1         0.3657516011E+01      0.6292218802E+01
          0                 2           2             5    8     1      -0.2321023899E-01       5    8    1        -0.1289090170E+01      0.2583104339E+01
          0                 3           2             4    7     1       0.1823718190E-01       5    8    1         0.9975289722E+00      0.2406927197E+01
          0                 4           2             4    7     1      -0.1449240541E-02       4    7    1        -0.8125753587E-01      0.1407681743E+00
          0                 5           2             5    7     1      -0.5285719940E-03       4    6    1        -0.3032413268E-01      0.7314733203E-01
          0                 6           2             5    7     1      -0.1793908482E-03       5    7    1        -0.1028898020E-01      0.2488135745E-01
          0                 7           2             4    7     1      -0.1532857211E-03       5    7    1        -0.8725809748E-02      0.2126003299E-01
          0                 8           1             5    7     1      -0.9863122973E-04       5    7    1        -0.5654264146E-02      0.1374734876E-01

    ------------------------------------------------
       NWT REQUIRED            8 OUTER ITERATIONS 
       AND A TOTAL OF         15 INNER ITERATIONS.
    ------------------------------------------------

 NO OUTPUT CONTROL FOR STRESS PERIOD   22   TIME STEP   22
 
 SOLVING FOR HEAD 
                                                   Max.-Head-Change                         Max.-Flux-Residual
  Residual-Control   Outer-Iter.   Inner-Iter.     Column Row Layer    Maximum-Head-Change  Column Row Layer    Maximum-Flux-Residual          L2-NORM 
          0                 1           2             5    8     1       0.6234805829E-01       5    8    1         0.3442389438E+01      0.5910734269E+01
          0                 2           2             5    8     1      -0.6064747597E-02       5    8    1        -0.3442377881E+00      0.5910576685E+00
          0                 3           2             5    8     1       0.4129871964E-03       5    8    1         0.2409667722E-01      0.4137335667E-01
          0                 4           1             5    8     1      -0.1643314571E-04       5    8    1        -0.9855554142E-03      0.1692129932E-02

    ------------------------------------------------
       NWT REQUIRED            4 OUTER ITERATIONS 
       AND A TOTAL OF          7 INNER ITERATIONS.
    ------------------------------------------------

 NO OUTPUT CONTROL FOR STRESS PERIOD   22   TIME STEP   23
 
 SOLVING FOR HEAD 
                                                   Max.-Head-Change                         Max.-Flux-Residual
  Residual-Control   Outer-Iter.   Inner-Iter.     Column Row Layer    Maximum-Head-Change  Column Row Layer    Maximum-Flux-Residual          L2-NORM 
          0                 1           2             5    8     1       0.5872507096E-01       5    8    1         0.3239965989E+01      0.5552684613E+01
          0                 2           2             5    8     1      -0.5712391385E-02       5    8    1        -0.3239989400E+00      0.5552577010E+00
          0                 3           2             5    8     1       0.3890254638E-03       5    8    1         0.2268179128E-01      0.3886921593E-01
          0                 4           1             5    8     1      -0.1546026211E-04       5    8    1        -0.9265565702E-03      0.1588625986E-02

    ------------------------------------------------
       NWT REQUIRED            4 OUTER ITERATIONS 
       AND A TOTAL OF          7 INNER ITERATIONS.
    ------------------------------------------------

 NO OUTPUT CONTROL FOR STRESS PERIOD   22   TIME STEP   24
 
 SOLVING FOR HEAD 
                                                   Max.-Head-Change                         Max.-Flux-Residual
  Residual-Control   Outer-Iter.   Inner-Iter.     Column Row Layer    Maximum-Head-Change  Column Row Layer    Maximum-Flux-Residual          L2-NORM 
          0                 1           2             5    8     1       0.5535352136E-01       5    8    1         0.3051702293E+01      0.5220694792E+01
          0                 2           2             5    8     1      -0.5561911694E-02       5    8    1        -0.3149438824E+00      0.5321956540E+00
          0                 3           2             4    7     1      -0.2879952181E-02       4    7    1        -0.1596882708E+00      0.3497350595E+00
          0                 4           2             5    7     1       0.2751263689E-02       4    6    1         0.1536551246E+00      0.3735505700E+00
          0                 5           2             5    7     1      -0.1558018892E-01       4    6    1        -0.8927156515E+00      0.2192112385E+01
          0                 6           2             5    7     1       0.1278322208E-01       5    7    1         0.7531083511E+00      0.1834094358E+01
          0                 7           2             4    7     1       0.5014527443E-03       4    7    1         0.3088377039E-01      0.3934053788E-01
          0                 8           1             4    7     1       0.2068805575E-04       4    7    1         0.1286941567E-02      0.1332230252E-02

    ------------------------------------------------
       NWT REQUIRED            8 OUTER ITERATIONS 
       AND A TOTAL OF         15 INNER ITERATIONS.
    ------------------------------------------------

 NO OUTPUT CONTROL FOR STRESS PERIOD   22   TIME STEP   25
 
 SOLVING FOR HEAD 
                                                   Max.-Head-Change                         Max.-Flux-Residual
  Residual-Control   Outer-Iter.   Inner-Iter.     Column Row Layer    Maximum-Head-Change  Column Row Layer    Maximum-Flux-Residual          L2-NORM 
          0                 1           2             5    8     1       0.5229949702E-01       5    8    1         0.2881212796E+01      0.4920780065E+01
          0                 2           2             5    8     1      -0.2078075579E-01       5    8    1        -0.1152130673E+01      0.2370568898E+01
          0                 3           2             4    7     1       0.1705605507E-01       5    8    1         0.9259343995E+00      0.2241527825E+01
          0                 4           2             4    7     1      -0.1057688691E-02       4    7    1        -0.5956450228E-01      0.9223073083E-01
          0                 5           1             5    7     1      -0.3828403242E-04       4   13    1        -0.2228779144E-02      0.6194802314E-02

    ------------------------------------------------
       NWT REQUIRED            5 OUTER ITERATIONS 
       AND A TOTAL OF          9 INNER ITERATIONS.
    ------------------------------------------------

 NO OUTPUT CONTROL FOR STRESS PERIOD   22   TIME STEP   26
 
 SOLVING FOR HEAD 
                                                   Max.-Head-Change                         Max.-Flux-Residual
  Residual-Control   Outer-Iter.   Inner-Iter.     Column Row Layer    Maximum-Head-Change  Column Row Layer    Maximum-Flux-Residual          L2-NORM 
          0                 1           2             5    8     1       0.4937766831E-01       5    8    1         0.2718250218E+01      0.4635551532E+01
          0                 2           2             5    8     1      -0.2221581057E-01       5    8    1        -0.1230491606E+01      0.2584920266E+01
          0                 3           2             4    7     1      -0.5340012519E+00       4    6    1        -0.2790993637E+02      0.6834391505E+02
          0                 4           2             4    7     1       0.5193493071E-01       4    7    1         0.2825757797E+01      0.5181124242E+01
          0                 5           2             4    7     1      -0.3536681363E-02       4    7    1        -0.2002757885E+00      0.2666910989E+00
          0                 6           1             4    7     1       0.1407271254E-03       4    7    1         0.8289083298E-02      0.8558084649E-02
          0                 7           1             4    7     1      -0.1735228095E-05       4    7    1        -0.1062519611E-03      0.1120598616E-03

    ------------------------------------------------
       NWT REQUIRED            7 OUTER ITERATIONS 
       AND A TOTAL OF         12 INNER ITERATIONS.
    ------------------------------------------------

 NO OUTPUT CONTROL FOR STRESS PERIOD   22   TIME STEP   27
 
 SOLVING FOR HEAD 
                                                   Max.-Head-Change                         Max.-Flux-Residual
  Residual-Control   Outer-Iter.   Inner-Iter.     Column Row Layer    Maximum-Head-Change  Column Row Layer    Maximum-Flux-Residual          L2-NORM 
          0                 1           2             5    8     1       0.6222126063E-01       5    8    1         0.3424112790E+01      0.5856537737E+01
          0                 2           2             5    8     1      -0.4010910281E-01       5    8    1        -0.2217410886E+01      0.4938858795E+01
          0                 3           2             4    7     1       0.2045919239E-01       4    7    1         0.1100353372E+01      0.2627147491E+01
          0                 4           2             4    7     1      -0.1393202742E-02       4    7    1        -0.7837001923E-01      0.1246511140E+00
          0                 5           1             4    7     1       0.5543674443E-04       4    7    1         0.3258682041E-02      0.3468048346E-02

    ------------------------------------------------
       NWT REQUIRED            5 OUTER ITERATIONS 
       AND A TOTAL OF          9 INNER ITERATIONS.
    ------------------------------------------------

 NO OUTPUT CONTROL FOR STRESS PERIOD   22   TIME STEP   28
 
 SOLVING FOR HEAD 
                                                   Max.-Head-Change                         Max.-Flux-Residual
  Residual-Control   Outer-Iter.   Inner-Iter.     Column Row Layer    Maximum-Head-Change  Column Row Layer    Maximum-Flux-Residual          L2-NORM 
          0                 1           2             5    8     1       0.5931228122E-01       5    8    1         0.3261592368E+01      0.5571498627E+01
          0                 2           2             5    8     1      -0.5769465468E-02       5    8    1        -0.3261591947E+00      0.5571349070E+00
          0                 3           2             5    8     1       0.3928794201E-03       5    8    1         0.2283116461E-01      0.3899868632E-01
          0                 4           1             5    8     1      -0.1563303962E-04       5    8    1        -0.9337959423E-03      0.1594993412E-02

    ------------------------------------------------
       NWT REQUIRED            4 OUTER ITERATIONS 
       AND A TOTAL OF          7 INNER ITERATIONS.
    ------------------------------------------------

 NO OUTPUT CONTROL FOR STRESS PERIOD   22   TIME STEP   29
 
 SOLVING FOR HEAD 
                                                   Max.-Head-Change                         Max.-Flux-Residual
  Residual-Control   Outer-Iter.   Inner-Iter.     Column Row Layer    Maximum-Head-Change  Column Row Layer    Maximum-Flux-Residual          L2-NORM 
          0                 1           2             5    8     1       0.5609305242E-01       5    8    1         0.3082214708E+01      0.5254914716E+01
          0                 2           2             5    8     1      -0.5456326760E-02       5    8    1        -0.3082217309E+00      0.5254795306E+00
          0                 3           2             5    8     1       0.3715555992E-03       5    8    1         0.2157552812E-01      0.3678300313E-01
          0                 4           1             5    8     1      -0.1478454518E-04       5    8    1        -0.8824403444E-03      0.1504376749E-02

    ------------------------------------------------
       NWT REQUIRED            4 OUTER ITERATIONS 
       AND A TOTAL OF          7 INNER ITERATIONS.
    ------------------------------------------------

 NO OUTPUT CONTROL FOR STRESS PERIOD   22   TIME STEP   30



 STREAM LISTING     PERIOD     22   STEP       30

 LAYER ROW COL. STREAM  RCH.  FLOW INTO     FLOW TO   FLOW OUT OF   OVRLND.     DIRECT     STREAM       STREAM     STREAM     STREAM   STREAMBED  STREAMBED
                SEG.NO.  NO.  STRM. RCH.    AQUIFER    STRM. RCH.    RUNOFF     PRECIP       ET          HEAD       DEPTH      WIDTH   CONDCTNC.   GRADIENT

   1    1    1     1     1    9.1618E+00  1.4063E-01   9.0211E+00  0.000E+00  0.000E+00  0.000E+00  1.09392E+03  8.721E-01  8.071E+00  3.632E-02  1.291E+00
   1    2    2     1     2    9.0211E+00  2.1609E-01   8.8050E+00  0.000E+00  0.000E+00  0.000E+00  1.08893E+03  8.664E-01  7.984E+00  5.589E-02  1.289E+00
   1    3    3     1     3    8.8050E+00  1.8264E-01   8.6224E+00  0.000E+00  0.000E+00  0.000E+00  1.08328E+03  8.600E-01  7.886E+00  4.732E-02  1.287E+00
   1    3    4     1     4    8.6224E+00  1.6685E-01   8.4556E+00  0.000E+00  0.000E+00  0.000E+00  1.07826E+03  8.543E-01  7.800E+00  4.329E-02  1.285E+00
   1    4    5     2     1    6.4556E+00  2.7527E-01   6.1803E+00  0.000E+00  0.000E+00  0.000E+00  1.07246E+03  5.290E-01  1.200E+01  7.800E-02  1.176E+00
   1    5    6     2     2    6.1803E+00  2.1100E-01   5.9693E+00  0.000E+00  0.000E+00  0.000E+00  1.06703E+03  5.167E-01  1.200E+01  6.000E-02  1.172E+00
   1    6    6     2     3    5.9693E+00  2.1035E-01   5.7589E+00  0.000E+00  0.000E+00  0.000E+00  1.06230E+03  5.059E-01  1.200E+01  6.000E-02  1.169E+00
   1    7    6     2     4    5.7589E+00  2.0970E-01   5.5492E+00  0.000E+00  0.000E+00  0.000E+00  1.05757E+03  4.950E-01  1.200E+01  6.000E-02  1.165E+00
   1    8    6     2     5    5.5492E+00  2.0903E-01   5.3402E+00  0.000E+00  0.000E+00  0.000E+00  1.05284E+03  4.839E-01  1.200E+01  6.000E-02  1.161E+00
   1    3    5     3     1    2.0000E+00  2.8252E-01   1.7175E+00  0.000E+00  0.000E+00  0.000E+00  1.07555E+03  1.909E+00  9.636E+00  7.227E-02  1.955E+00
   1    3    6     3     2    1.7175E+00  2.4905E-01   1.4684E+00  0.000E+00  0.000E+00  0.000E+00  1.07264E+03  1.727E+00  8.909E+00  6.682E-02  1.864E+00
   1    3    7     3     3    1.4684E+00  1.9718E-01   1.2712E+00  0.000E+00  0.000E+00  0.000E+00  1.06987E+03  1.555E+00  8.218E+00  5.547E-02  1.777E+00
   1    4    8     3     4    1.2712E+00  2.2567E-01   1.0456E+00  0.000E+00  0.000E+00  0.000E+00  1.06682E+03  1.364E+00  7.455E+00  6.709E-02  1.682E+00
   1    5    8     3     5    1.0456E+00  1.5790E-01   8.8768E-01  0.000E+00  0.000E+00  0.000E+00  1.06362E+03  1.164E+00  6.655E+00  4.991E-02  1.582E+00
   1    6    8     3     6    8.8768E-01  5.5980E-02   8.3170E-01  0.000E+00  0.000E+00  0.000E+00  1.06158E+03  1.036E+00  6.145E+00  1.844E-02  1.518E+00
   1    5   10     4     1    1.0000E+01  9.0919E-02   9.9091E+00  0.000E+00  0.000E+00  0.000E+00  1.07836E+03  6.368E-01  1.000E+01  2.500E-02  1.212E+00
   1    5    9     4     2    9.9091E+00  1.8158E-01   9.7275E+00  0.000E+00  0.000E+00  0.000E+00  1.07154E+03  6.315E-01  1.000E+01  5.000E-02  1.211E+00
   1    6    8     4     3    9.7275E+00  1.2689E-01   9.6006E+00  0.000E+00  0.000E+00  0.000E+00  1.06381E+03  6.256E-01  1.000E+01  3.500E-02  1.209E+00
   1    6    8     5     1    1.0432E+01  2.2686E-01   1.0205E+01  0.000E+00  0.000E+00  0.000E+00  1.05868E+03  6.790E-01  1.542E+01  6.166E-02  1.226E+00
   1    7    7     5     2    1.0205E+01  2.7894E-01   9.9265E+00  0.000E+00  0.000E+00  0.000E+00  1.05417E+03  6.732E-01  1.519E+01  7.594E-02  1.224E+00
   1    8    7     5     3    9.9265E+00  1.9221E-01   9.7343E+00  0.000E+00  0.000E+00  0.000E+00  1.04992E+03  6.676E-01  1.497E+01  5.241E-02  1.223E+00
   1    8    6     5     4    9.7343E+00  1.3577E-01   9.5985E+00  0.000E+00  0.000E+00  0.000E+00  1.04691E+03  6.637E-01  1.482E+01  3.706E-02  1.221E+00
   1    9    6     6     1    1.4939E+01  2.3354E-01   1.4705E+01  0.000E+00  0.000E+00  0.000E+00  1.04362E+03  8.923E-01  1.200E+01  6.000E-02  1.297E+00
   1   10    7     6     2    1.4705E+01  2.3303E-01   1.4472E+01  0.000E+00  0.000E+00  0.000E+00  1.03907E+03  8.839E-01  1.200E+01  6.000E-02  1.295E+00
   1   11    7     6     3    1.4472E+01  2.3252E-01   1.4240E+01  0.000E+00  0.000E+00  0.000E+00  1.03451E+03  8.754E-01  1.200E+01  6.000E-02  1.292E+00
   1   12    7     6     4    1.4240E+01  2.3201E-01   1.4008E+01  0.000E+00  0.000E+00  0.000E+00  1.02996E+03  8.668E-01  1.200E+01  6.000E-02  1.289E+00
   1   13    7     6     5    1.4008E+01  5.8068E-03   1.4002E+01  0.000E+00  0.000E+00  0.000E+00  1.02677E+03  8.625E-01  1.200E+01  2.400E-02  8.065E-02
   1   14    9     7     1    1.5000E+02  1.3840E+00   1.4862E+02  0.000E+00  0.000E+00  0.000E+00  1.03987E+03  2.288E+00  5.529E+01  5.593E-01  8.249E-01
   1   13    8     7     2    1.4862E+02  2.0028E+00   1.4661E+02  0.000E+00  0.000E+00  0.000E+00  1.03478E+03  2.279E+00  5.525E+01  6.147E-01  1.086E+00
   1   13    7     7     3    1.4661E+02  1.7634E+00   1.4485E+02  0.000E+00  0.000E+00  0.000E+00  1.02969E+03  2.269E+00  5.521E+01  5.584E-01  1.053E+00
   1   13    6     8     1    1.5885E+02  1.1510E+00   1.5770E+02  0.000E+00  0.000E+00  0.000E+00  1.02475E+03  2.874E+00  4.168E+01  4.247E-01  9.034E-01
   1   13    5     8     2    1.5770E+02  4.0000E-01   1.5730E+02  0.000E+00  0.000E+00  0.000E+00  1.01849E+03  2.869E+00  4.160E+01  4.239E-01  3.145E-01
   1   13    4     8     3    1.5730E+02 -1.6100E+00   1.5891E+02  0.000E+00  0.000E+00  0.000E+00  1.01225E+03  2.873E+00  4.166E+01  4.245E+00 -1.264E-01
   1   13    3     8     4    1.5891E+02 -3.2197E+00   1.6213E+02  0.000E+00  0.000E+00  0.000E+00  1.00601E+03  2.889E+00  4.190E+01  4.269E+00 -2.514E-01
   1   13    2     8     5    1.6213E+02 -2.4240E+00   1.6455E+02  0.000E+00  0.000E+00  0.000E+00  9.99783E+02  2.908E+00  4.217E+01  4.297E+00 -1.880E-01
   1   13    1     8     6    1.6455E+02 -1.9186E+00   1.6647E+02  0.000E+00  0.000E+00  0.000E+00  9.94798E+02  2.923E+00  4.238E+01  2.591E+00 -2.468E-01
   1    8    6     9     1    1.9121E-07  0.0000E+00   1.9121E-07  0.000E+00  0.000E+00  0.000E+00  1.07875E+03  5.299E-05  4.000E+00  0.000E+00  1.000E+00
   1    8    5     9     2    1.9121E-07  0.0000E+00   1.9121E-07  0.000E+00  0.000E+00  0.000E+00  1.07825E+03  5.299E-05  4.000E+00  0.000E+00  1.000E+00





UNSATURATED ZONE PACKAGE VOLUMETRIC BUDGET FOR  TIME STEP    30 STRESS PERIOD   22
  ------------------------------------------------------------------------------



     CUMULATIVE VOLUMES      L**3       RATES FOR THIS TIME STEP      L**3/T
     ------------------                 ------------------------

           IN:                                      IN:
           ---                                      ---
        INFILTRATION =  4253543324.1053          INFILTRATION =           0.8475

          OUT:                                     OUT:
          ----                                     ----
              UZF ET =   856265585.9600                UZF ET =          12.0675
        UZF RECHARGE =  2947865699.4395          UZF RECHARGE =       0.0000E+00

            IN - OUT =   449412038.7059              IN - OUT =         -11.2200

          STORAGE:                                 STORAGE:
          --------                                 --------
      STORAGE CHANGE =   449457918.6263        STORAGE CHANGE =         -11.2200

 PERCENT DISCREPANCY IS DIFFERENCE BETWEEN IN-OUT MINUS CHANGE IN STORAGE
 DIVIDED BY THE AVERAGE OF IN AND OUT TIMES 100

 PERCENT DISCREPANCY =          -0.00     PERCENT DISCREPANCY =           0.00






1
  VOLUMETRIC BUDGET FOR AGRICULTURAL FIELDS AT  END OF TIME STEP   30, STRESS PERIOD  22
  ------------------------------------------------------------------------------

     CUMULATIVE VOLUMES      L**3       RATES FOR THIS TIME STEP      L**3/T
     ------------------                 ------------------------

           IN:                                      IN:
           ---                                      ---
               AG WELLS  =  3700675072.0000                 AG WELLS  =       6.3737E-08
      DIVERSION SEGMENTS =   505989536.0000        DIVERSION SEGMENTS =       1.9121E-07
           GW IRRIGATION =           0.0000             GW IRRIGATION =           0.0000
           SW IRRIGATION =           0.0000             SW IRRIGATION =           0.0000
        SYSTEM LOSSES GW =           0.0000          SYSTEM LOSSES GW =           0.0000
        SYSTEM LOSSES SW =           0.0000          SYSTEM LOSSES SW =           0.0000

                TOTAL IN =  4206664704.0000                  TOTAL IN =       2.5495E-07

          OUT:                                     OUT:
          ----                                     ----
               AG WELLS  =           0.0000                 AG WELLS  =           0.0000
      DIVERSION SEGMENTS =           0.0000        DIVERSION SEGMENTS =           0.0000
           GW IRRIGATION =  3700675072.0000             GW IRRIGATION =       6.3737E-08
           SW IRRIGATION =   505998912.0000             SW IRRIGATION =       1.9122E-07
        SYSTEM LOSSES GW =           0.0000          SYSTEM LOSSES GW =           0.0000
        SYSTEM LOSSES SW =           0.0000          SYSTEM LOSSES SW =           0.0000

               TOTAL OUT =  4206673920.0000                 TOTAL OUT =       2.5495E-07

                IN - OUT =       -9216.0000                  IN - OUT =      -3.8085E-12

     PERCENT DISCREPANCY =          -0.00         PERCENT DISCREPANCY =          -0.00



1
  VOLUMETRIC BUDGET FOR ENTIRE MODEL AT END OF TIME STEP   30, STRESS PERIOD  22
  ------------------------------------------------------------------------------

     CUMULATIVE VOLUMES      L**3       RATES FOR THIS TIME STEP      L**3/T
     ------------------                 ------------------------

           IN:                                      IN:
           ---                                      ---
             STORAGE     =  3603705088.0000               STORAGE     =          10.7408
       CONSTANT HEAD     =           0.0000         CONSTANT HEAD     =           0.0000
     HEAD DEP BOUNDS     =    15941698.0000       HEAD DEP BOUNDS     =           0.2890
      STREAM LEAKAGE     =   658016768.0000        STREAM LEAKAGE     =          11.8612
        UZF RECHARGE     =  2947866112.0000          UZF RECHARGE     =           0.0000
               GW ET     =           0.0000                 GW ET     =           0.0000
     SURFACE LEAKAGE     =           0.0000       SURFACE LEAKAGE     =           0.0000
           AG WELLS      =           0.0000             AG WELLS      =           0.0000

                TOTAL IN =  7225529344.0000                  TOTAL IN =          22.8910

          OUT:                                     OUT:
          ----                                     ----
             STORAGE     =  2957712128.0000               STORAGE     =          13.4323
       CONSTANT HEAD     =           0.0000         CONSTANT HEAD     =           0.0000
     HEAD DEP BOUNDS     =    15899405.0000       HEAD DEP BOUNDS     =           0.2865
      STREAM LEAKAGE     =   551179968.0000        STREAM LEAKAGE     =           9.1722
        UZF RECHARGE     =           0.0000          UZF RECHARGE     =           0.0000
               GW ET     =           0.0000                 GW ET     =           0.0000
     SURFACE LEAKAGE     =           0.0000       SURFACE LEAKAGE     =           0.0000
           AG WELLS      =  3700675072.0000             AG WELLS      =       6.3737E-08

               TOTAL OUT =  7225466880.0000                 TOTAL OUT =          22.8910

                IN - OUT =       62464.0000                  IN - OUT =       1.5259E-05

     PERCENT DISCREPANCY =           0.00         PERCENT DISCREPANCY =           0.00






         TIME SUMMARY AT END OF TIME STEP   30 IN STRESS PERIOD   22
                    SECONDS     MINUTES      HOURS       DAYS        YEARS
                    -----------------------------------------------------------
   TIME STEP LENGTH  87667.      1461.1      24.352      1.0147     2.77799E-03
 STRESS PERIOD TIME 2.63000E+06  43833.      730.56      30.440     8.33397E-02
         TOTAL TIME 5.53166E+07 9.21944E+05  15366.      640.24      1.7529    
1
1
                            STRESS PERIOD NO.   23, LENGTH =   2630000.    
                            -----------------------------------------------

                              NUMBER OF TIME STEPS =    30

                               MULTIPLIER FOR DELT =     1.000

                            INITIAL TIME STEP SIZE =   87666.66    

 REUSING NON-PARAMETER GHB CELLS FROM LAST STRESS PERIOD

      2 GHB CELLS

 REUSING STREAM SEGMENT DATA FROM LAST STRESS PERIOD



            AREAL INFILTRATION RATE
 READING ON UNIT   19 WITH FORMAT: (FREE)              

            1           2           3           4           5           6           7           8           9          10
 ........................................................................................................................
   1   1.0000E-10  2.0000E-10   0.000       0.000       0.000       0.000       0.000       0.000       0.000       0.000    
   2   2.0000E-10  1.0000E-10  2.0000E-10   0.000       0.000      8.0000E-10  8.0000E-10  5.0000E-10   0.000       0.000    
   3    0.000      5.0000E-10  1.0000E-10  1.0000E-10  8.0000E-10  8.0000E-10  5.0000E-10  5.0000E-10   0.000       0.000    
   4   8.0000E-10  5.0000E-10  1.0000E-10  1.0000E-10  1.0000E-10  1.0000E-10  1.0000E-10  1.0000E-10  2.0000E-10   0.000    
   5   8.0000E-10  5.0000E-10  1.0000E-10  1.0000E-10  1.0000E-10  1.0000E-10  1.0000E-10  1.0000E-10  1.0000E-10  1.0000E-10
   6   8.0000E-10  5.0000E-10  5.0000E-10  2.0000E-10  2.0000E-10  1.0000E-10  1.0000E-10  1.0000E-10  1.0000E-10  5.0000E-10
   7   8.0000E-10  5.0000E-10  5.0000E-10  2.0000E-10  2.0000E-10  1.0000E-10  1.0000E-10  2.0000E-10  2.0000E-10   0.000    
   8    0.000      5.0000E-10  5.0000E-10  2.0000E-10  2.0000E-10  1.0000E-10  1.0000E-10  2.0000E-10  5.0000E-10   0.000    
   9    0.000      5.0000E-10  5.0000E-10  2.0000E-10  2.0000E-10  1.0000E-10  1.0000E-10  2.0000E-10  5.0000E-10   0.000    
  10    0.000      5.0000E-10  5.0000E-10  2.0000E-10  2.0000E-10  1.0000E-10  1.0000E-10  2.0000E-10  5.0000E-10  8.0000E-10
  11    0.000      1.0000E-10  1.0000E-10  1.0000E-10  1.0000E-10  1.0000E-10  1.0000E-10  2.0000E-10  5.0000E-10   0.000    
  12   1.0000E-10  1.0000E-10  1.0000E-10  1.0000E-10  1.0000E-10  1.0000E-10  1.0000E-10  1.0000E-10  2.0000E-10   0.000    
  13   1.0000E-10  1.0000E-10  2.0000E-10  2.0000E-10  2.0000E-10  2.0000E-10  2.0000E-10  1.0000E-10  1.0000E-10   0.000    
  14    0.000      2.0000E-10  5.0000E-10  5.0000E-10  5.0000E-10  5.0000E-10  5.0000E-10  2.0000E-10  1.0000E-10   0.000    
  15    0.000       0.000      8.0000E-10  8.0000E-10  8.0000E-10  8.0000E-10   0.000       0.000       0.000       0.000    

                  ET RATE =  5.000000E-09

 USING ET EXTINCTION DEPTH FROM PREVIOUS STRESS PERIOD. CURRENT PERIOD IS:      23

 USING EXTINCTION WATER CONTENT FROM PREVIOUS STRESS PERIOD. CURRENT PERIOD IS:      23

 USING AIR ENTRY PRESSURE FROM PREVIOUS STRESS PERIOD. CURRENT PERIOD IS:      23

 USING ROOT PRESSURE HEAD FROM PREVIOUS STRESS PERIOD. CURRENT PERIOD IS:      23

 USING ROOT ACTIVITY FROM PREVIOUS STRESS PERIOD. CURRENT PERIOD IS:      23

 PROCESSING AG STRESS PERIOD DATA

 READING AG STRESS PERIOD DATA

 READING IRRIGATION SEGMENT

 READING IRRIGATION WELL

 READING SUPPLEMENTAL WELL

 END PROCESSING AG STRESS PERIOD DATA OPTIONS
 
 SOLVING FOR HEAD 
                                                   Max.-Head-Change                         Max.-Flux-Residual
  Residual-Control   Outer-Iter.   Inner-Iter.     Column Row Layer    Maximum-Head-Change  Column Row Layer    Maximum-Flux-Residual          L2-NORM 
          0                 1           2             5    8     1       0.5308824815E-01       5    8    1         0.2914917181E+01      0.4961524864E+01
          0                 2           2             5    8     1      -0.5164044814E-02       5    8    1        -0.2914921937E+00      0.4961462460E+00
          0                 3           2             5    8     1       0.3516522498E-03       5    8    1         0.2040445788E-01      0.3473001768E-01
          0                 4           1             5    8     1      -0.1399257240E-04       5    8    1        -0.8345435153E-03      0.1420484161E-02

    ------------------------------------------------
       NWT REQUIRED            4 OUTER ITERATIONS 
       AND A TOTAL OF          7 INNER ITERATIONS.
    ------------------------------------------------

 NO OUTPUT CONTROL FOR STRESS PERIOD   23   TIME STEP    1
 
 SOLVING FOR HEAD 
                                                   Max.-Head-Change                         Max.-Flux-Residual
  Residual-Control   Outer-Iter.   Inner-Iter.     Column Row Layer    Maximum-Head-Change  Column Row Layer    Maximum-Flux-Residual          L2-NORM 
          0                 1           2             5    8     1       0.5028288375E-01       5    8    1         0.2758776446E+01      0.4687332043E+01
          0                 2           2             5    8     1      -0.4891161994E-02       5    8    1        -0.2758782983E+00      0.4687279376E+00
          0                 3           2             5    8     1       0.3330699154E-03       5    8    1         0.1931148304E-01      0.3281079348E-01
          0                 4           1             5    8     1      -0.1325316389E-04       5    8    1        -0.7898407791E-03      0.1341961723E-02

    ------------------------------------------------
       NWT REQUIRED            4 OUTER ITERATIONS 
       AND A TOTAL OF          7 INNER ITERATIONS.
    ------------------------------------------------

 NO OUTPUT CONTROL FOR STRESS PERIOD   23   TIME STEP    2
 
 SOLVING FOR HEAD 
                                                   Max.-Head-Change                         Max.-Flux-Residual
  Residual-Control   Outer-Iter.   Inner-Iter.     Column Row Layer    Maximum-Head-Change  Column Row Layer    Maximum-Flux-Residual          L2-NORM 
          0                 1           2             5    8     1       0.4766206553E-01       5    8    1         0.2612992132E+01      0.4432100091E+01
          0                 2           2             5    8     1      -0.4636229819E-02       5    8    1        -0.2612999989E+00      0.4432055918E+00
          0                 3           2             5    8     1       0.3157099603E-03       5    8    1         0.1829100039E-01      0.3102427260E-01
          0                 4           1             5    8     1      -0.1256239529E-04       5    8    1        -0.7481029938E-03      0.1268923321E-02

    ------------------------------------------------
       NWT REQUIRED            4 OUTER ITERATIONS 
       AND A TOTAL OF          7 INNER ITERATIONS.
    ------------------------------------------------

 NO OUTPUT CONTROL FOR STRESS PERIOD   23   TIME STEP    3
 
 SOLVING FOR HEAD 
                                                   Max.-Head-Change                         Max.-Flux-Residual
  Residual-Control   Outer-Iter.   Inner-Iter.     Column Row Layer    Maximum-Head-Change  Column Row Layer    Maximum-Flux-Residual          L2-NORM 
          0                 1           2             5    8     1       0.4521226994E-01       5    8    1         0.2476799823E+01      0.4194440308E+01
          0                 2           2             5    8     1      -0.4442197812E-02       5    8    1        -0.2506223440E+00      0.4205048436E+00
          0                 3           2             5    8     1       0.3024968698E-03       5    8    1         0.1754354856E-01      0.2943518391E-01
          0                 4           1             5    8     1      -0.1203663517E-04       5    8    1        -0.7175322373E-03      0.1203877830E-02

    ------------------------------------------------
       NWT REQUIRED            4 OUTER ITERATIONS 
       AND A TOTAL OF          7 INNER ITERATIONS.
    ------------------------------------------------

 NO OUTPUT CONTROL FOR STRESS PERIOD   23   TIME STEP    4
 
 SOLVING FOR HEAD 
                                                   Max.-Head-Change                         Max.-Flux-Residual
  Residual-Control   Outer-Iter.   Inner-Iter.     Column Row Layer    Maximum-Head-Change  Column Row Layer    Maximum-Flux-Residual          L2-NORM 
          0                 1           2             5    8     1       0.4281368946E-01       5    8    1         0.2347123247E+01      0.3972250450E+01
          0                 2           2             5    8     1      -0.4164634839E-02       5    8    1        -0.2347144972E+00      0.3972223975E+00
          0                 3           2             5    8     1       0.2835958967E-03       5    8    1         0.1643000135E-01      0.2780544841E-01
          0                 4           1             5    8     1      -0.1128454743E-04       5    8    1        -0.6719880851E-03      0.1137226462E-02

    ------------------------------------------------
       NWT REQUIRED            4 OUTER ITERATIONS 
       AND A TOTAL OF          7 INNER ITERATIONS.
    ------------------------------------------------

 NO OUTPUT CONTROL FOR STRESS PERIOD   23   TIME STEP    5
 
 SOLVING FOR HEAD 
                                                   Max.-Head-Change                         Max.-Flux-Residual
  Residual-Control   Outer-Iter.   Inner-Iter.     Column Row Layer    Maximum-Head-Change  Column Row Layer    Maximum-Flux-Residual          L2-NORM 
          0                 1           2             5    8     1       0.4061646154E-01       5    8    1         0.2224851349E+01      0.3764946074E+01
          0                 2           2             5    8     1      -0.3950902723E-02       5    8    1        -0.2224871786E+00      0.3764924349E+00
          0                 3           2             5    8     1       0.2690415490E-03       5    8    1         0.1557408989E-01      0.2635436859E-01
          0                 4           1             5    8     1      -0.1070541646E-04       5    8    1        -0.6369812513E-03      0.1077877197E-02

    ------------------------------------------------
       NWT REQUIRED            4 OUTER ITERATIONS 
       AND A TOTAL OF          7 INNER ITERATIONS.
    ------------------------------------------------

 NO OUTPUT CONTROL FOR STRESS PERIOD   23   TIME STEP    6
 
 SOLVING FOR HEAD 
                                                   Max.-Head-Change                         Max.-Flux-Residual
  Residual-Control   Outer-Iter.   Inner-Iter.     Column Row Layer    Maximum-Head-Change  Column Row Layer    Maximum-Flux-Residual          L2-NORM 
          0                 1           2             5    8     1       0.3856340427E-01       5    8    1         0.2110668829E+01      0.3571910063E+01
          0                 2           2             5    8     1      -0.3751194531E-02       5    8    1        -0.2110688020E+00      0.3571892467E+00
          0                 3           2             5    8     1       0.2554421782E-03       5    8    1         0.1477480436E-01      0.2500316056E-01
          0                 4           1             5    8     1      -0.1016428438E-04       5    8    1        -0.6042904201E-03      0.1022625712E-02

    ------------------------------------------------
       NWT REQUIRED            4 OUTER ITERATIONS 
       AND A TOTAL OF          7 INNER ITERATIONS.
    ------------------------------------------------

 NO OUTPUT CONTROL FOR STRESS PERIOD   23   TIME STEP    7
 
 SOLVING FOR HEAD 
                                                   Max.-Head-Change                         Max.-Flux-Residual
  Residual-Control   Outer-Iter.   Inner-Iter.     Column Row Layer    Maximum-Head-Change  Column Row Layer    Maximum-Flux-Residual          L2-NORM 
          0                 1           2             5    8     1       0.3664391519E-01       5    8    1         0.2003977050E+01      0.3392133633E+01
          0                 2           2             5    8     1      -0.3564478944E-02       5    8    1        -0.2003995042E+00      0.3392119517E+00
          0                 3           2             5    8     1       0.2427275552E-03       5    8    1         0.1402795432E-01      0.2374477874E-01
          0                 4           1             5    8     1      -0.9658357986E-05       5    8    1        -0.5737442236E-03      0.9711681527E-03

    ------------------------------------------------
       NWT REQUIRED            4 OUTER ITERATIONS 
       AND A TOTAL OF          7 INNER ITERATIONS.
    ------------------------------------------------

 NO OUTPUT CONTROL FOR STRESS PERIOD   23   TIME STEP    8
 
 SOLVING FOR HEAD 
                                                   Max.-Head-Change                         Max.-Flux-Residual
  Residual-Control   Outer-Iter.   Inner-Iter.     Column Row Layer    Maximum-Head-Change  Column Row Layer    Maximum-Flux-Residual          L2-NORM 
          0                 1           2             5    8     1       0.3484840909E-01       5    8    1         0.1904234114E+01      0.3224697077E+01
          0                 2           2             5    8     1      -0.3365279844E-02       5    8    1        -0.1888067510E+00      0.3214255724E+00
          0                 3           2             5    8     1       0.2291624678E-03       5    8    1         0.1321643632E-01      0.2249970669E-01
          0                 4           1             5    8     1      -0.9118591672E-05       5    8    1        -0.5405531870E-03      0.9202303908E-03

    ------------------------------------------------
       NWT REQUIRED            4 OUTER ITERATIONS 
       AND A TOTAL OF          7 INNER ITERATIONS.
    ------------------------------------------------

 NO OUTPUT CONTROL FOR STRESS PERIOD   23   TIME STEP    9
 
 SOLVING FOR HEAD 
                                                   Max.-Head-Change                         Max.-Flux-Residual
  Residual-Control   Outer-Iter.   Inner-Iter.     Column Row Layer    Maximum-Head-Change  Column Row Layer    Maximum-Flux-Residual          L2-NORM 
          0                 1           2             5    8     1       0.3322569700E-01       5    8    1         0.1812243438E+01      0.3069605210E+01
          0                 2           2             5    8     1      -0.3232013429E-02       5    8    1        -0.1812284393E+00      0.3069357375E+00
          0                 3           2             5    8     1       0.2200875657E-03       5    8    1         0.1268595747E-01      0.2148543879E-01
          0                 4           1             5    8     1      -0.8757492803E-05       5    8    1        -0.5188565660E-03      0.8787554899E-03

    ------------------------------------------------
       NWT REQUIRED            4 OUTER ITERATIONS 
       AND A TOTAL OF          7 INNER ITERATIONS.
    ------------------------------------------------

 NO OUTPUT CONTROL FOR STRESS PERIOD   23   TIME STEP   10
 
 SOLVING FOR HEAD 
                                                   Max.-Head-Change                         Max.-Flux-Residual
  Residual-Control   Outer-Iter.   Inner-Iter.     Column Row Layer    Maximum-Head-Change  Column Row Layer    Maximum-Flux-Residual          L2-NORM 
          0                 1           2             5    8     1       0.3167982367E-01       5    8    1         0.1726601353E+01      0.2925459365E+01
          0                 2           2             5    8     1      -0.3081635398E-02       5    8    1        -0.1726638366E+00      0.2925466984E+00
          0                 3           2             5    8     1       0.2098474336E-03       5    8    1         0.1208643876E-01      0.2047820040E-01
          0                 4           1             5    8     1      -0.8350028134E-05       5    8    1        -0.4943361912E-03      0.8375445878E-03

    ------------------------------------------------
       NWT REQUIRED            4 OUTER ITERATIONS 
       AND A TOTAL OF          7 INNER ITERATIONS.
    ------------------------------------------------

 NO OUTPUT CONTROL FOR STRESS PERIOD   23   TIME STEP   11
 
 SOLVING FOR HEAD 
                                                   Max.-Head-Change                         Max.-Flux-Residual
  Residual-Control   Outer-Iter.   Inner-Iter.     Column Row Layer    Maximum-Head-Change  Column Row Layer    Maximum-Flux-Residual          L2-NORM 
          0                 1           2             5    8     1       0.3022889604E-01       5    8    1         0.1646261597E+01      0.2791130966E+01
          0                 2           2             5    8     1      -0.2940494738E-02       5    8    1        -0.1646295090E+00      0.2791138663E+00
          0                 3           2             5    8     1       0.2002363265E-03       5    8    1         0.1152403892E-01      0.1953791069E-01
          0                 4           1             5    8     1      -0.7967592896E-05       5    8    1        -0.4713339847E-03      0.7991030198E-03

    ------------------------------------------------
       NWT REQUIRED            4 OUTER ITERATIONS 
       AND A TOTAL OF          7 INNER ITERATIONS.
    ------------------------------------------------

 NO OUTPUT CONTROL FOR STRESS PERIOD   23   TIME STEP   12
 
 SOLVING FOR HEAD 
                                                   Max.-Head-Change                         Max.-Flux-Residual
  Residual-Control   Outer-Iter.   Inner-Iter.     Column Row Layer    Maximum-Head-Change  Column Row Layer    Maximum-Flux-Residual          L2-NORM 
          0                 1           2             5    8     1       0.1686449503E+00       5    8    1         0.9283145578E+01      0.9529770488E+01
          0                 2           2             5    8     1       0.6430167336E-01       5    8    1         0.3550117825E+01      0.3556655887E+01
          0                 3           2             5    8     1       0.2451737250E-01       5    8    1         0.1352570784E+01      0.1352670249E+01
          0                 4           2             5    8     1       0.9348168758E-02       5    8    1         0.5157679699E+00      0.5157701364E+00
          0                 5           1             5    8     1       0.3564343343E-02       5    8    1         0.1966547771E+00      0.1966557771E+00
          0                 6           1             5    8     1       0.1359041318E-02       5    8    1         0.7498217295E-01      0.7498254217E-01
          0                 7           1             5    8     1       0.5181861998E-03       5    8    1         0.2858981378E-01      0.2858995492E-01
          0                 8           1             5    8     1       0.1975782094E-03       5    8    1         0.1090095517E-01      0.1090100895E-01
          0                 9           1             5    8     1       0.7533421334E-04       5    8    1         0.4156404332E-02      0.4156424846E-02

    ------------------------------------------------
       NWT REQUIRED            9 OUTER ITERATIONS 
       AND A TOTAL OF         13 INNER ITERATIONS.
    ------------------------------------------------

 NO OUTPUT CONTROL FOR STRESS PERIOD   23   TIME STEP   13
 
 SOLVING FOR HEAD 
                                                   Max.-Head-Change                         Max.-Flux-Residual
  Residual-Control   Outer-Iter.   Inner-Iter.     Column Row Layer    Maximum-Head-Change  Column Row Layer    Maximum-Flux-Residual          L2-NORM 
          0                 1           2             5    8     1       0.1607579900E+00       5    8    1         0.8835724273E+01      0.9116635765E+01
          0                 2           2             5    8     1       0.6129176148E-01       5    8    1         0.3385424466E+01      0.3392874199E+01
          0                 3           2             5    8     1       0.2336870571E-01       5    8    1         0.1289157465E+01      0.1289272902E+01
          0                 4           2             5    8     1       0.8909803821E-02       5    8    1         0.4916128580E+00      0.4916144695E+00
          0                 5           1             5    8     1       0.3397050280E-02       5    8    1         0.1874331414E+00      0.1874340325E+00
          0                 6           1             5    8     1       0.1295197336E-02       5    8    1         0.7146319076E-01      0.7146351220E-01
          0                 7           1             5    8     1       0.4938214627E-03       5    8    1         0.2724684020E-01      0.2724696345E-01
          0                 8           1             5    8     1       0.1882799175E-03       5    8    1         0.1038843916E-01      0.1038848608E-01
          0                 9           1             5    8     1       0.7178571727E-04       5    8    1         0.3960813032E-02      0.3960831174E-02

    ------------------------------------------------
       NWT REQUIRED            9 OUTER ITERATIONS 
       AND A TOTAL OF         13 INNER ITERATIONS.
    ------------------------------------------------

 NO OUTPUT CONTROL FOR STRESS PERIOD   23   TIME STEP   14
 
 SOLVING FOR HEAD 
                                                   Max.-Head-Change                         Max.-Flux-Residual
  Residual-Control   Outer-Iter.   Inner-Iter.     Column Row Layer    Maximum-Head-Change  Column Row Layer    Maximum-Flux-Residual          L2-NORM 
          0                 1           2             5    8     1       0.1449472425E+00       5    8    1         0.7952307457E+01      0.8303819714E+01
          0                 2           2             5    8     1       0.5526160126E-01       5    8    1         0.3053915317E+01      0.3063265518E+01
          0                 3           2             5    8     1       0.2106876085E-01       5    8    1         0.1162194335E+01      0.1162341351E+01
          0                 4           2             5    8     1       0.8032585506E-02       5    8    1         0.4432335684E+00      0.4432350304E+00
          0                 5           1             5    8     1       0.3062471370E-02       5    8    1         0.1689772346E+00      0.1689780604E+00
          0                 6           1             5    8     1       0.1167585891E-02       5    8    1         0.6442424746E-01      0.6442453713E-01
          0                 7           1             5    8     1       0.4451492906E-03       5    8    1         0.2456209179E-01      0.2456220318E-01
          0                 8           1             5    8     1       0.1697159074E-03       5    8    1         0.9364454294E-02      0.9364497005E-02
          0                 9           1             5    8     1       0.6470523558E-04       5    8    1         0.3570255562E-02      0.3570271731E-02

    ------------------------------------------------
       NWT REQUIRED            9 OUTER ITERATIONS 
       AND A TOTAL OF         13 INNER ITERATIONS.
    ------------------------------------------------

 NO OUTPUT CONTROL FOR STRESS PERIOD   23   TIME STEP   15
 
 SOLVING FOR HEAD 
                                                   Max.-Head-Change                         Max.-Flux-Residual
  Residual-Control   Outer-Iter.   Inner-Iter.     Column Row Layer    Maximum-Head-Change  Column Row Layer    Maximum-Flux-Residual          L2-NORM 
          0                 1           2             5    8     1       0.1309378111E+00       5    8    1         0.7170034172E+01      0.7608859776E+01
          0                 2           2             5    8     1       0.4991872592E-01       5    8    1         0.2760123606E+01      0.2771844949E+01
          0                 3           2             5    8     1       0.1905618358E-01       5    8    1         0.1050448756E+01      0.1050625861E+01
          0                 4           2             5    8     1       0.7270853530E-02       5    8    1         0.4009314335E+00      0.4009335555E+00
          0                 5           1             5    8     1       0.2774184023E-02       5    8    1         0.1529696239E+00      0.1529709826E+00
          0                 6           1             5    8     1       0.1058486431E-02       5    8    1         0.5836562519E-01      0.5836611173E-01
          0                 7           1             5    8     1       0.4038642243E-03       5    8    1         0.2226933036E-01      0.2226951719E-01
          0                 8           1             5    8     1       0.1540939174E-03       5    8    1         0.8496837945E-02      0.8496909148E-02
          0                 9           1             5    8     1       0.5879435304E-04       5    8    1         0.3241958688E-02      0.3241985854E-02

    ------------------------------------------------
       NWT REQUIRED            9 OUTER ITERATIONS 
       AND A TOTAL OF         13 INNER ITERATIONS.
    ------------------------------------------------

 NO OUTPUT CONTROL FOR STRESS PERIOD   23   TIME STEP   16
 
 SOLVING FOR HEAD 
                                                   Max.-Head-Change                         Max.-Flux-Residual
  Residual-Control   Outer-Iter.   Inner-Iter.     Column Row Layer    Maximum-Head-Change  Column Row Layer    Maximum-Flux-Residual          L2-NORM 
          0                 1           2             5    8     1       0.1186051479E+00       5    8    1         0.6478624859E+01      0.7017042177E+01
          0                 2           2             5    8     1       0.4525135759E-01       5    8    1         0.2501754334E+01      0.2516231863E+01
          0                 3           2             5    8     1       0.1726474374E-01       5    8    1         0.9516331875E+00      0.9518568601E+00
          0                 4           1             5    8     1       0.6587033150E-02       5    8    1         0.3632412699E+00      0.3632428460E+00
          0                 5           1             5    8     1       0.2513158757E-02       5    8    1         0.1385814275E+00      0.1385826838E+00
          0                 6           1             5    8     1       0.9588488292E-03       5    8    1         0.5287345840E-01      0.5287389883E-01
          0                 7           1             5    8     1       0.3658309248E-03       5    8    1         0.2017287732E-01      0.2017304696E-01
          0                 8           1             5    8     1       0.1395759874E-03       5    8    1         0.7696587476E-02      0.7696652434E-02
          0                 9           1             5    8     1       0.5325262377E-04       5    8    1         0.2936490032E-02      0.2936514704E-02

    ------------------------------------------------
       NWT REQUIRED            9 OUTER ITERATIONS 
       AND A TOTAL OF         12 INNER ITERATIONS.
    ------------------------------------------------

 NO OUTPUT CONTROL FOR STRESS PERIOD   23   TIME STEP   17
 
 SOLVING FOR HEAD 
                                                   Max.-Head-Change                         Max.-Flux-Residual
  Residual-Control   Outer-Iter.   Inner-Iter.     Column Row Layer    Maximum-Head-Change  Column Row Layer    Maximum-Flux-Residual          L2-NORM 
          0                 1           2             5    8     1       0.1076739923E+00       5    8    1         0.5869619733E+01      0.6515386934E+01
          0                 2           2             5    8     1       0.4102960449E-01       5    8    1         0.2271885934E+01      0.2289401847E+01
          0                 3           2             5    8     1       0.1563430652E-01       5    8    1         0.8625306289E+00      0.8627979138E+00
          0                 4           1             5    8     1       0.5957463751E-02       5    8    1         0.3288537393E+00      0.3288549869E+00
          0                 5           1             5    8     1       0.2270098089E-02       5    8    1         0.1253027390E+00      0.1253039328E+00
          0                 6           1             5    8     1       0.8650237055E-03       5    8    1         0.4774710391E-01      0.4774751453E-01
          0                 7           1             5    8     1       0.3296184099E-03       5    8    1         0.1819408822E-01      0.1819424637E-01
          0                 8           1             5    8     1       0.1256015317E-03       5    8    1         0.6932882713E-02      0.6932942892E-02
          0                 9           1             5    8     1       0.4786063123E-04       5    8    1         0.2641784331E-02      0.2641807262E-02

    ------------------------------------------------
       NWT REQUIRED            9 OUTER ITERATIONS 
       AND A TOTAL OF         12 INNER ITERATIONS.
    ------------------------------------------------

 NO OUTPUT CONTROL FOR STRESS PERIOD   23   TIME STEP   18
 
 SOLVING FOR HEAD 
                                                   Max.-Head-Change                         Max.-Flux-Residual
  Residual-Control   Outer-Iter.   Inner-Iter.     Column Row Layer    Maximum-Head-Change  Column Row Layer    Maximum-Flux-Residual          L2-NORM 
          0                 1           2             5    8     1       0.9780392697E-01       5    8    1         0.5324555809E+01      0.6084524913E+01
          0                 2           2             5    8     1       0.3726639254E-01       5    8    1         0.2064775708E+01      0.2085663472E+01
          0                 3           2             5    8     1       0.1419965386E-01       5    8    1         0.7833297750E+00      0.7836440275E+00
          0                 4           1             5    8     1       0.5410527044E-02       5    8    1         0.2986775570E+00      0.2986784862E+00
          0                 5           1             5    8     1       0.2061587500E-02       5    8    1         0.1137977921E+00      0.1137988980E+00
          0                 6           1             5    8     1       0.7855324463E-03       5    8    1         0.4336105474E-01      0.4336142734E-01
          0                 7           1             5    8     1       0.2993136637E-03       5    8    1         0.1652197615E-01      0.1652211998E-01
          0                 8           1             5    8     1       0.1140483435E-03       5    8    1         0.6295417154E-02      0.6295471859E-02
          0                 9           1             5    8     1       0.4345616750E-04       5    8    1         0.2398760984E-02      0.2398781834E-02

    ------------------------------------------------
       NWT REQUIRED            9 OUTER ITERATIONS 
       AND A TOTAL OF         12 INNER ITERATIONS.
    ------------------------------------------------

 NO OUTPUT CONTROL FOR STRESS PERIOD   23   TIME STEP   19
 
 SOLVING FOR HEAD 
                                                   Max.-Head-Change                         Max.-Flux-Residual
  Residual-Control   Outer-Iter.   Inner-Iter.     Column Row Layer    Maximum-Head-Change  Column Row Layer    Maximum-Flux-Residual          L2-NORM 
          0                 1           2             5    8     1       0.8903702818E-01       5    8    1         0.4836313275E+01      0.5714797870E+01
          0                 2           2             5    8     1       0.3392449370E-01       5    8    1         0.1880797998E+01      0.1905277267E+01
          0                 3           2             5    8     1       0.1292572704E-01       5    8    1         0.7129999543E+00      0.7133637313E+00
          0                 4           1             5    8     1       0.4924905717E-02       5    8    1         0.2718823919E+00      0.2718830907E+00
          0                 5           1             5    8     1       0.1876468199E-02       5    8    1         0.1035828149E+00      0.1035838424E+00
          0                 6           1             5    8     1       0.7149647641E-03       5    8    1         0.3946711399E-01      0.3946745294E-01
          0                 7           1             5    8     1       0.2724131843E-03       5    8    1         0.1503759966E-01      0.1503773082E-01
          0                 8           1             5    8     1       0.1037938511E-03       5    8    1         0.5729571072E-02      0.5729620937E-02
          0                 9           1             5    8     1       0.3954714499E-04       5    8    1         0.2183059844E-02      0.2183078847E-02

    ------------------------------------------------
       NWT REQUIRED            9 OUTER ITERATIONS 
       AND A TOTAL OF         12 INNER ITERATIONS.
    ------------------------------------------------

 NO OUTPUT CONTROL FOR STRESS PERIOD   23   TIME STEP   20
 
 SOLVING FOR HEAD 
                                                   Max.-Head-Change                         Max.-Flux-Residual
  Residual-Control   Outer-Iter.   Inner-Iter.     Column Row Layer    Maximum-Head-Change  Column Row Layer    Maximum-Flux-Residual          L2-NORM 
          0                 1           2             4    8     1       0.9112472043E-01       4    8    1         0.4886542393E+01      0.7078879263E+01
          0                 2           2             4    8     1       0.3597250297E-01       4    8    1         0.1931237385E+01      0.2612805463E+01
          0                 3           2             4    8     1       0.1419716418E-01       4    8    1         0.7621624755E+00      0.1017938530E+01
          0                 4           2             4    8     1       0.5601880224E-02       4    8    1         0.3008024521E+00      0.3993472590E+00
          0                 5           2             4    8     1       0.2209897391E-02       4    8    1         0.1186830866E+00      0.1566593257E+00
          0                 6           2             4    8     1       0.8716077805E-03       4    8    1         0.4681766675E-01      0.6146301270E-01
          0                 7           2             4    8     1       0.3437044738E-03       4    8    1         0.1846462993E-01      0.2411586404E-01
          0                 8           2             4    8     1       0.1355091234E-03       4    8    1         0.7280945872E-02      0.9462874668E-02
          0                 9           1             4    8     1       0.5341645838E-04       4    8    1         0.2870482972E-02      0.3713400483E-02

    ------------------------------------------------
       NWT REQUIRED            9 OUTER ITERATIONS 
       AND A TOTAL OF         17 INNER ITERATIONS.
    ------------------------------------------------

 NO OUTPUT CONTROL FOR STRESS PERIOD   23   TIME STEP   21
 
 SOLVING FOR HEAD 
                                                   Max.-Head-Change                         Max.-Flux-Residual
  Residual-Control   Outer-Iter.   Inner-Iter.     Column Row Layer    Maximum-Head-Change  Column Row Layer    Maximum-Flux-Residual          L2-NORM 
          0                 1           2             4    8     1       0.1762715899E+00       4    8    1         0.9635024389E+01      0.1065975491E+02
          0                 2           2             4    8     1       0.6831368429E-01       4    8    1         0.3717522928E+01      0.3727453146E+01
          0                 3           2             4    8     1       0.2651814959E-01       4    8    1         0.1442374949E+01      0.1442507406E+01
          0                 4           2             4    8     1       0.1029388550E-01       4    8    1         0.5599673070E+00      0.5599679939E+00
          0                 5           2             4    8     1       0.3995910055E-02       4    8    1         0.2173645660E+00      0.2173646949E+00
          0                 6           2             4    8     1       0.1551144196E-02       4    8    1         0.8437774284E-01      0.8437778393E-01
          0                 7           2             4    8     1       0.6021277994E-03       4    8    1         0.3275396485E-01      0.3275398129E-01
          0                 8           2             4    8     1       0.2337357800E-03       4    8    1         0.1271453771E-01      0.1271454405E-01
          0                 9           1             4    8     1       0.9073225983E-04       4    8    1         0.4935567295E-02      0.4935569768E-02

    ------------------------------------------------
       NWT REQUIRED            9 OUTER ITERATIONS 
       AND A TOTAL OF         17 INNER ITERATIONS.
    ------------------------------------------------

 NO OUTPUT CONTROL FOR STRESS PERIOD   23   TIME STEP   22
 
 SOLVING FOR HEAD 
                                                   Max.-Head-Change                         Max.-Flux-Residual
  Residual-Control   Outer-Iter.   Inner-Iter.     Column Row Layer    Maximum-Head-Change  Column Row Layer    Maximum-Flux-Residual          L2-NORM 
          0                 1           2             4    8     1       0.1612281837E+00       4    8    1         0.8806078289E+01      0.1175938533E+02
          0                 2           2             4    8     1       0.6260996846E-01       4    8    1         0.3400934306E+01      0.4250013963E+01
          0                 3           2             4    8     1       0.2431314814E-01       4    8    1         0.1322375851E+01      0.1634515663E+01
          0                 4           2             4    8     1       0.9441401753E-02       4    8    1         0.5134140614E+00      0.6304985336E+00
          0                 5           2             4    8     1       0.3666306921E-02       4    8    1         0.1993769799E+00      0.2433356850E+00
          0                 6           2             4    8     1       0.1423698912E-02       4    8    1         0.7742226523E-01      0.9392496186E-01
          0                 7           2             4    8     1       0.5528464000E-03       4    8    1         0.3006455060E-01      0.3625957889E-01
          0                 8           2             4    8     1       0.2146781551E-03       4    8    1         0.1167456277E-01      0.1400001506E-01
          0                 9           1             4    8     1       0.8336203363E-04       4    8    1         0.4533393867E-02      0.5406262117E-02

    ------------------------------------------------
       NWT REQUIRED            9 OUTER ITERATIONS 
       AND A TOTAL OF         17 INNER ITERATIONS.
    ------------------------------------------------

 NO OUTPUT CONTROL FOR STRESS PERIOD   23   TIME STEP   23
 
 SOLVING FOR HEAD 
                                                   Max.-Head-Change                         Max.-Flux-Residual
  Residual-Control   Outer-Iter.   Inner-Iter.     Column Row Layer    Maximum-Head-Change  Column Row Layer    Maximum-Flux-Residual          L2-NORM 
          0                 1           2             5    7     1       0.1644405234E+00       5    7    1         0.9089607709E+01      0.1268118957E+02
          0                 2           2             5    7     1       0.6266191269E-01       5    7    1         0.3457897775E+01      0.4672119439E+01
          0                 3           2             5    7     1       0.2387662731E-01       5    7    1         0.1318103928E+01      0.1794104613E+01
          0                 4           2             5    7     1       0.9098402903E-02       5    7    1         0.5022228213E+00      0.6902486003E+00
          0                 5           2             5    7     1       0.3467066196E-02       5    7    1         0.1913801543E+00      0.2656797208E+00
          0                 6           2             5    7     1       0.1321185720E-02       5    7    1         0.7292798499E-01      0.1022818430E+00
          0                 7           2             4    8     1       0.5140970542E-03       4    8    1         0.2790859874E-01      0.3938543560E-01
          0                 8           2             4    8     1       0.2000622385E-03       4    8    1         0.1086080282E-01      0.1516940424E-01
          0                 9           1             4    8     1       0.7785392716E-04       4    8    1         0.4226502499E-02      0.5843820094E-02

    ------------------------------------------------
       NWT REQUIRED            9 OUTER ITERATIONS 
       AND A TOTAL OF         17 INNER ITERATIONS.
    ------------------------------------------------

 NO OUTPUT CONTROL FOR STRESS PERIOD   23   TIME STEP   24
 
 SOLVING FOR HEAD 
                                                   Max.-Head-Change                         Max.-Flux-Residual
  Residual-Control   Outer-Iter.   Inner-Iter.     Column Row Layer    Maximum-Head-Change  Column Row Layer    Maximum-Flux-Residual          L2-NORM 
          0                 1           2             5    7     1       0.1474996046E+00       5    7    1         0.8133275231E+01      0.1149672408E+02
          0                 2           2             5    7     1       0.5608568844E-01       5    7    1         0.3098840435E+01      0.4242339575E+01
          0                 3           2             5    7     1       0.2135424964E-01       5    7    1         0.1179423308E+01      0.1626685814E+01
          0                 4           2             5    7     1       0.8130579076E-02       5    7    1         0.4490646101E+00      0.6257923195E+00
          0                 5           2             4    8     1       0.3124425539E-02       5    7    1         0.1709825137E+00      0.2408388502E+00
          0                 6           2             4    8     1       0.1215850001E-02       4    8    1         0.6600293011E-01      0.9270796939E-01
          0                 7           2             4    8     1       0.4731348459E-03       4    8    1         0.2568461696E-01      0.3569544052E-01
          0                 8           2             4    8     1       0.1841132593E-03       4    8    1         0.9994874956E-02      0.1374710433E-01
          0                 9           1             4    8     1       0.7164410640E-04       4    8    1         0.3889349224E-02      0.5295584668E-02

    ------------------------------------------------
       NWT REQUIRED            9 OUTER ITERATIONS 
       AND A TOTAL OF         17 INNER ITERATIONS.
    ------------------------------------------------

 NO OUTPUT CONTROL FOR STRESS PERIOD   23   TIME STEP   25
 
 SOLVING FOR HEAD 
                                                   Max.-Head-Change                         Max.-Flux-Residual
  Residual-Control   Outer-Iter.   Inner-Iter.     Column Row Layer    Maximum-Head-Change  Column Row Layer    Maximum-Flux-Residual          L2-NORM 
          0                 1           2             5    7     1       0.1324127345E+00       5    7    1         0.7288070734E+01      0.1049568301E+02
          0                 2           2             5    7     1       0.5041232081E-01       5    7    1         0.2787455280E+01      0.3865581548E+01
          0                 3           2             5    7     1       0.1909689302E-01       5    7    1         0.1056252302E+01      0.1478375230E+01
          0                 4           2             4    8     1       0.7412630787E-02       4    8    1         0.4024038578E+00      0.5683892834E+00
          0                 5           2             4    8     1       0.2884448049E-02       4    8    1         0.1565897139E+00      0.2185963992E+00
          0                 6           2             4    8     1       0.1122400550E-02       4    8    1         0.6093285224E-01      0.8409299272E-01
          0                 7           2             4    8     1       0.4367449367E-03       4    8    1         0.2371027058E-01      0.3235942913E-01
          0                 8           2             4    8     1       0.1699428296E-03       4    8    1         0.9226050882E-02      0.1245556400E-01
          0                 9           1             4    8     1       0.6612609253E-04       4    8    1         0.3589965040E-02      0.4795647214E-02

    ------------------------------------------------
       NWT REQUIRED            9 OUTER ITERATIONS 
       AND A TOTAL OF         17 INNER ITERATIONS.
    ------------------------------------------------

 NO OUTPUT CONTROL FOR STRESS PERIOD   23   TIME STEP   26
 
 SOLVING FOR HEAD 
                                                   Max.-Head-Change                         Max.-Flux-Residual
  Residual-Control   Outer-Iter.   Inner-Iter.     Column Row Layer    Maximum-Head-Change  Column Row Layer    Maximum-Flux-Residual          L2-NORM 
          0                 1           2             5    6     1       0.1466281395E+00       5    6    1         0.7978594602E+01      0.1383359735E+02
          0                 2           2             5    6     1       0.5684739108E-01       5    6    1         0.3095959897E+01      0.5386843638E+01
          0                 3           2             5    6     1       0.2204786286E-01       5    6    1         0.1200041163E+01      0.2123934754E+01
          0                 4           2             5    6     1       0.8554284545E-02       5    6    1         0.4655000820E+00      0.8385784243E+00
          0                 5           2             5    6     1       0.3320173184E-02       5    6    1         0.1806183100E+00      0.3312054615E+00
          0                 6           2             5    6     1       0.1289129046E-02       5    6    1         0.7010901797E-01      0.1308536892E+00
          0                 7           2             5    6     1       0.5007136840E-03       5    6    1         0.2722334371E-01      0.5171308056E-01
          0                 8           2             4    7     1       0.1994269038E-03       4    7    1         0.1058319989E-01      0.2044253204E-01
          0                 9           1             4    7     1       0.7983200763E-04       4    7    1         0.4237682268E-02      0.8083177131E-02

    ------------------------------------------------
       NWT REQUIRED            9 OUTER ITERATIONS 
       AND A TOTAL OF         17 INNER ITERATIONS.
    ------------------------------------------------

 NO OUTPUT CONTROL FOR STRESS PERIOD   23   TIME STEP   27
 
 SOLVING FOR HEAD 
                                                   Max.-Head-Change                         Max.-Flux-Residual
  Residual-Control   Outer-Iter.   Inner-Iter.     Column Row Layer    Maximum-Head-Change  Column Row Layer    Maximum-Flux-Residual          L2-NORM 
          0                 1           2             4    7     1       0.1846499974E+00       4    7    1         0.9872863046E+01      0.1602716240E+02
          0                 2           2             4    7     1       0.7314976367E-01       4    7    1         0.3916228828E+01      0.6277422610E+01
          0                 3           2             4    7     1       0.2898664900E-01       4    7    1         0.1550939944E+01      0.2476464033E+01
          0                 4           2             4    7     1       0.1148930378E-01       4    7    1         0.6146769505E+00      0.9784722385E+00
          0                 5           2             4    7     1       0.4555024380E-02       4    7    1         0.2436432389E+00      0.3867107145E+00
          0                 6           2             4    7     1       0.1806260431E-02       4    7    1         0.9659935370E-01      0.1528913913E+00
          0                 7           2             4    7     1       0.7163985849E-03       4    7    1         0.3830730463E-01      0.6046619285E-01
          0                 8           2             4    7     1       0.2841884047E-03       4    7    1         0.1519402642E-01      0.2392033132E-01
          0                 9           1             4    7     1       0.1127530758E-03       4    7    1         0.6027535037E-02      0.9465327336E-02
          0                10           1             4    7     1       0.4474190596E-04       4    7    1         0.2391529277E-02      0.3746354620E-02

    ------------------------------------------------
       NWT REQUIRED           10 OUTER ITERATIONS 
       AND A TOTAL OF         18 INNER ITERATIONS.
    ------------------------------------------------

 NO OUTPUT CONTROL FOR STRESS PERIOD   23   TIME STEP   28
 
 SOLVING FOR HEAD 
                                                   Max.-Head-Change                         Max.-Flux-Residual
  Residual-Control   Outer-Iter.   Inner-Iter.     Column Row Layer    Maximum-Head-Change  Column Row Layer    Maximum-Flux-Residual          L2-NORM 
          0                 1           2             4    7     1       0.1752143226E+00       4    7    1         0.9357746972E+01      0.1517997051E+02
          0                 2           2             4    7     1       0.6943672822E-01       4    7    1         0.3717171069E+01      0.5936705230E+01
          0                 3           2             4    7     1       0.2752433118E-01       4    7    1         0.1472251509E+01      0.2341138943E+01
          0                 4           2             4    7     1       0.1091291517E-01       4    7    1         0.5836633519E+00      0.9249491141E+00
          0                 5           2             4    7     1       0.4327661041E-02       4    7    1         0.2314211787E+00      0.3655389654E+00
          0                 6           2             4    7     1       0.1716510927E-02       4    7    1         0.9177703557E-01      0.1445117393E+00
          0                 7           2             4    7     1       0.6809470962E-03       4    7    1         0.3640354389E-01      0.5714885175E-01
          0                 8           2             4    7     1       0.2701760241E-03       4    7    1         0.1444193057E-01      0.2260666752E-01
          0                 9           1             4    7     1       0.1072113010E-03       4    7    1         0.5730230314E-02      0.8944989591E-02
          0                10           1             4    7     1       0.4254894872E-04       4    7    1         0.2273934546E-02      0.3540202532E-02

    ------------------------------------------------
       NWT REQUIRED           10 OUTER ITERATIONS 
       AND A TOTAL OF         18 INNER ITERATIONS.
    ------------------------------------------------

 NO OUTPUT CONTROL FOR STRESS PERIOD   23   TIME STEP   29
 
 SOLVING FOR HEAD 
                                                   Max.-Head-Change                         Max.-Flux-Residual
  Residual-Control   Outer-Iter.   Inner-Iter.     Column Row Layer    Maximum-Head-Change  Column Row Layer    Maximum-Flux-Residual          L2-NORM 
          0                 1           2             4    7     1       0.1664805479E+00       4    7    1         0.8881562300E+01      0.1443767173E+02
          0                 2           2             4    7     1       0.6599558657E-01       4    7    1         0.3532824593E+01      0.5622342474E+01
          0                 3           2             4    7     1       0.2616738422E-01       4    7    1         0.1399316874E+01      0.2215346117E+01
          0                 4           2             4    7     1       0.1037747064E-01       4    7    1         0.5549209865E+00      0.8752441218E+00
          0                 5           2             4    7     1       0.4116234071E-02       4    7    1         0.2200772921E+00      0.3458818708E+00
          0                 6           2             4    7     1       0.1632971090E-02       4    7    1         0.8729715913E-01      0.1367353564E+00
          0                 7           2             4    7     1       0.6479179248E-03       4    7    1         0.3463320117E-01      0.5407158790E-01
          0                 8           2             4    7     1       0.2571096066E-03       4    7    1         0.1374190226E-01      0.2138857727E-01
          0                 9           1             4    7     1       0.1020393469E-03       4    7    1         0.5453264990E-02      0.8462731190E-02
          0                10           1             4    7     1       0.4050072623E-04       4    7    1         0.2164293964E-02      0.3349264522E-02

    ------------------------------------------------
       NWT REQUIRED           10 OUTER ITERATIONS 
       AND A TOTAL OF         18 INNER ITERATIONS.
    ------------------------------------------------

 NO OUTPUT CONTROL FOR STRESS PERIOD   23   TIME STEP   30



 STREAM LISTING     PERIOD     23   STEP       30

 LAYER ROW COL. STREAM  RCH.  FLOW INTO     FLOW TO   FLOW OUT OF   OVRLND.     DIRECT     STREAM       STREAM     STREAM     STREAM   STREAMBED  STREAMBED
                SEG.NO.  NO.  STRM. RCH.    AQUIFER    STRM. RCH.    RUNOFF     PRECIP       ET          HEAD       DEPTH      WIDTH   CONDCTNC.   GRADIENT

   1    1    1     1     1    8.2501E+00  1.3178E-01   8.1183E+00  0.000E+00  0.000E+00  0.000E+00  1.09389E+03  8.424E-01  7.622E+00  3.430E-02  1.281E+00
   1    2    2     1     2    8.1183E+00  2.0241E-01   7.9159E+00  0.000E+00  0.000E+00  0.000E+00  1.08890E+03  8.367E-01  7.537E+00  5.276E-02  1.279E+00
   1    3    3     1     3    7.9159E+00  1.7099E-01   7.7449E+00  0.000E+00  0.000E+00  0.000E+00  1.08325E+03  8.302E-01  7.440E+00  4.464E-02  1.277E+00
   1    3    4     1     4    7.7449E+00  1.5612E-01   7.5888E+00  0.000E+00  0.000E+00  0.000E+00  1.07823E+03  8.244E-01  7.355E+00  4.082E-02  1.275E+00
   1    4    5     2     1    5.5888E+00  2.7178E-01   5.3170E+00  0.000E+00  0.000E+00  0.000E+00  1.07242E+03  4.843E-01  1.200E+01  7.800E-02  1.161E+00
   1    5    6     2     2    5.3170E+00  2.0828E-01   5.1088E+00  0.000E+00  0.000E+00  0.000E+00  1.06698E+03  4.714E-01  1.200E+01  6.000E-02  1.157E+00
   1    6    6     2     3    5.1088E+00  2.0760E-01   4.9012E+00  0.000E+00  0.000E+00  0.000E+00  1.06225E+03  4.600E-01  1.200E+01  6.000E-02  1.153E+00
   1    7    6     2     4    4.9012E+00  2.0691E-01   4.6943E+00  0.000E+00  0.000E+00  0.000E+00  1.05752E+03  4.485E-01  1.200E+01  6.000E-02  1.150E+00
   1    8    6     2     5    4.6943E+00  2.0621E-01   4.4880E+00  0.000E+00  0.000E+00  0.000E+00  1.05280E+03  4.368E-01  1.200E+01  6.000E-02  1.146E+00
   1    3    5     3     1    2.0000E+00  2.8252E-01   1.7175E+00  0.000E+00  0.000E+00  0.000E+00  1.07555E+03  1.909E+00  9.636E+00  7.227E-02  1.955E+00
   1    3    6     3     2    1.7175E+00  2.4905E-01   1.4684E+00  0.000E+00  0.000E+00  0.000E+00  1.07264E+03  1.727E+00  8.909E+00  6.682E-02  1.864E+00
   1    3    7     3     3    1.4684E+00  1.9718E-01   1.2712E+00  0.000E+00  0.000E+00  0.000E+00  1.06987E+03  1.555E+00  8.218E+00  5.547E-02  1.777E+00
   1    4    8     3     4    1.2712E+00  2.2567E-01   1.0456E+00  0.000E+00  0.000E+00  0.000E+00  1.06682E+03  1.364E+00  7.455E+00  6.709E-02  1.682E+00
   1    5    8     3     5    1.0456E+00  1.5790E-01   8.8768E-01  0.000E+00  0.000E+00  0.000E+00  1.06362E+03  1.164E+00  6.655E+00  4.991E-02  1.582E+00
   1    6    8     3     6    8.8768E-01  5.5980E-02   8.3170E-01  0.000E+00  0.000E+00  0.000E+00  1.06158E+03  1.036E+00  6.145E+00  1.844E-02  1.518E+00
   1    5   10     4     1    1.0000E+01  9.0919E-02   9.9091E+00  0.000E+00  0.000E+00  0.000E+00  1.07836E+03  6.368E-01  1.000E+01  2.500E-02  1.212E+00
   1    5    9     4     2    9.9091E+00  1.8158E-01   9.7275E+00  0.000E+00  0.000E+00  0.000E+00  1.07154E+03  6.315E-01  1.000E+01  5.000E-02  1.211E+00
   1    6    8     4     3    9.7275E+00  1.2689E-01   9.6006E+00  0.000E+00  0.000E+00  0.000E+00  1.06381E+03  6.256E-01  1.000E+01  3.500E-02  1.209E+00
   1    6    8     5     1    1.0432E+01  2.2686E-01   1.0205E+01  0.000E+00  0.000E+00  0.000E+00  1.05868E+03  6.790E-01  1.542E+01  6.166E-02  1.226E+00
   1    7    7     5     2    1.0205E+01  2.7894E-01   9.9265E+00  0.000E+00  0.000E+00  0.000E+00  1.05417E+03  6.732E-01  1.519E+01  7.594E-02  1.224E+00
   1    8    7     5     3    9.9265E+00  1.9221E-01   9.7343E+00  0.000E+00  0.000E+00  0.000E+00  1.04992E+03  6.676E-01  1.497E+01  5.241E-02  1.223E+00
   1    8    6     5     4    9.7343E+00  1.3577E-01   9.5985E+00  0.000E+00  0.000E+00  0.000E+00  1.04691E+03  6.637E-01  1.482E+01  3.706E-02  1.221E+00
   1    9    6     6     1    1.4087E+01  2.3167E-01   1.3855E+01  0.000E+00  0.000E+00  0.000E+00  1.04359E+03  8.612E-01  1.200E+01  6.000E-02  1.287E+00
   1   10    7     6     2    1.3855E+01  2.3116E-01   1.3624E+01  0.000E+00  0.000E+00  0.000E+00  1.03903E+03  8.526E-01  1.200E+01  6.000E-02  1.284E+00
   1   11    7     6     3    1.3624E+01  2.3064E-01   1.3393E+01  0.000E+00  0.000E+00  0.000E+00  1.03448E+03  8.440E-01  1.200E+01  6.000E-02  1.281E+00
   1   12    7     6     4    1.3393E+01  2.3012E-01   1.3163E+01  0.000E+00  0.000E+00  0.000E+00  1.02993E+03  8.353E-01  1.200E+01  6.000E-02  1.278E+00
   1   13    7     6     5    1.3163E+01  5.4287E-03   1.3158E+01  0.000E+00  0.000E+00  0.000E+00  1.02674E+03  8.309E-01  1.200E+01  2.400E-02  7.540E-02
   1   14    9     7     1    1.5000E+02  1.3859E+00   1.4861E+02  0.000E+00  0.000E+00  0.000E+00  1.03987E+03  2.288E+00  5.529E+01  5.593E-01  8.260E-01
   1   13    8     7     2    1.4861E+02  2.0082E+00   1.4661E+02  0.000E+00  0.000E+00  0.000E+00  1.03478E+03  2.279E+00  5.525E+01  6.147E-01  1.089E+00
   1   13    7     7     3    1.4661E+02  1.7722E+00   1.4483E+02  0.000E+00  0.000E+00  0.000E+00  1.02969E+03  2.268E+00  5.521E+01  5.584E-01  1.058E+00
   1   13    6     8     1    1.5799E+02  1.1531E+00   1.5684E+02  0.000E+00  0.000E+00  0.000E+00  1.02474E+03  2.868E+00  4.159E+01  4.238E-01  9.069E-01
   1   13    5     8     2    1.5684E+02  4.0201E-01   1.5644E+02  0.000E+00  0.000E+00  0.000E+00  1.01849E+03  2.863E+00  4.151E+01  4.230E-01  3.168E-01
   1   13    4     8     3    1.5644E+02 -1.6487E+00   1.5808E+02  0.000E+00  0.000E+00  0.000E+00  1.01224E+03  2.867E+00  4.157E+01  4.237E+00 -1.297E-01
   1   13    3     8     4    1.5808E+02 -3.2599E+00   1.6134E+02  0.000E+00  0.000E+00  0.000E+00  1.00601E+03  2.884E+00  4.182E+01  4.261E+00 -2.550E-01
   1   13    2     8     5    1.6134E+02 -2.4807E+00   1.6383E+02  0.000E+00  0.000E+00  0.000E+00  9.99778E+02  2.903E+00  4.210E+01  4.290E+00 -1.928E-01
   1   13    1     8     6    1.6383E+02 -1.9502E+00   1.6578E+02  0.000E+00  0.000E+00  0.000E+00  9.94793E+02  2.918E+00  4.231E+01  2.587E+00 -2.513E-01
   1    8    6     9     1    0.0000E+00  0.0000E+00   0.0000E+00  0.000E+00  0.000E+00  0.000E+00  1.07875E+03  0.000E+00  4.000E+00  0.000E+00  1.000E+00
   1    8    5     9     2    0.0000E+00  0.0000E+00   0.0000E+00  0.000E+00  0.000E+00  0.000E+00  1.07825E+03  0.000E+00  4.000E+00  0.000E+00  1.000E+00





UNSATURATED ZONE PACKAGE VOLUMETRIC BUDGET FOR  TIME STEP    30 STRESS PERIOD   23
  ------------------------------------------------------------------------------



     CUMULATIVE VOLUMES      L**3       RATES FOR THIS TIME STEP      L**3/T
     ------------------                 ------------------------

           IN:                                      IN:
           ---                                      ---
        INFILTRATION =  4255772248.9781          INFILTRATION =           0.8475

          OUT:                                     OUT:
          ----                                     ----
              UZF ET =   858936781.0761                UZF ET =           0.8475
        UZF RECHARGE =  2989557969.3145          UZF RECHARGE =          55.6568

            IN - OUT =   407277498.5876              IN - OUT =         -55.6568

          STORAGE:                                 STORAGE:
          --------                                 --------
      STORAGE CHANGE =   407323378.3921        STORAGE CHANGE =         -55.6568

 PERCENT DISCREPANCY IS DIFFERENCE BETWEEN IN-OUT MINUS CHANGE IN STORAGE
 DIVIDED BY THE AVERAGE OF IN AND OUT TIMES 100

 PERCENT DISCREPANCY =          -0.00     PERCENT DISCREPANCY =           0.00






1
  VOLUMETRIC BUDGET FOR AGRICULTURAL FIELDS AT  END OF TIME STEP   30, STRESS PERIOD  23
  ------------------------------------------------------------------------------

     CUMULATIVE VOLUMES      L**3       RATES FOR THIS TIME STEP      L**3/T
     ------------------                 ------------------------

           IN:                                      IN:
           ---                                      ---
               AG WELLS  =  3700675072.0000                 AG WELLS  =           0.0000
      DIVERSION SEGMENTS =   505989536.0000        DIVERSION SEGMENTS =           0.0000
           GW IRRIGATION =           0.0000             GW IRRIGATION =           0.0000
           SW IRRIGATION =           0.0000             SW IRRIGATION =           0.0000
        SYSTEM LOSSES GW =           0.0000          SYSTEM LOSSES GW =           0.0000
        SYSTEM LOSSES SW =           0.0000          SYSTEM LOSSES SW =           0.0000

                TOTAL IN =  4206664704.0000                  TOTAL IN =           0.0000

          OUT:                                     OUT:
          ----                                     ----
               AG WELLS  =           0.0000                 AG WELLS  =           0.0000
      DIVERSION SEGMENTS =           0.0000        DIVERSION SEGMENTS =           0.0000
           GW IRRIGATION =  3700675072.0000             GW IRRIGATION =           0.0000
           SW IRRIGATION =   505998912.0000             SW IRRIGATION =           0.0000
        SYSTEM LOSSES GW =           0.0000          SYSTEM LOSSES GW =           0.0000
        SYSTEM LOSSES SW =           0.0000          SYSTEM LOSSES SW =           0.0000

               TOTAL OUT =  4206673920.0000                 TOTAL OUT =           0.0000

                IN - OUT =       -9216.0000                  IN - OUT =           0.0000

     PERCENT DISCREPANCY =          -0.00         PERCENT DISCREPANCY =           0.00



1
  VOLUMETRIC BUDGET FOR ENTIRE MODEL AT END OF TIME STEP   30, STRESS PERIOD  23
  ------------------------------------------------------------------------------

     CUMULATIVE VOLUMES      L**3       RATES FOR THIS TIME STEP      L**3/T
     ------------------                 ------------------------

           IN:                                      IN:
           ---                                      ---
             STORAGE     =  3618859776.0000               STORAGE     =           2.8674
       CONSTANT HEAD     =           0.0000         CONSTANT HEAD     =           0.0000
     HEAD DEP BOUNDS     =    16702049.0000       HEAD DEP BOUNDS     =           0.2892
      STREAM LEAKAGE     =   689051840.0000        STREAM LEAKAGE     =          11.8141
        UZF RECHARGE     =  2989559040.0000          UZF RECHARGE     =          55.6568
               GW ET     =           0.0000                 GW ET     =           0.0000
     SURFACE LEAKAGE     =           0.0000       SURFACE LEAKAGE     =           0.0000
           AG WELLS      =           0.0000             AG WELLS      =           0.0000

                TOTAL IN =  7314172928.0000                  TOTAL IN =          70.6274

          OUT:                                     OUT:
          ----                                     ----
             STORAGE     =  3021104896.0000               STORAGE     =          60.9985
       CONSTANT HEAD     =           0.0000         CONSTANT HEAD     =           0.0000
     HEAD DEP BOUNDS     =    16653319.0000       HEAD DEP BOUNDS     =           0.2868
      STREAM LEAKAGE     =   575671872.0000        STREAM LEAKAGE     =           9.3395
        UZF RECHARGE     =           0.0000          UZF RECHARGE     =           0.0000
               GW ET     =           0.0000                 GW ET     =           0.0000
     SURFACE LEAKAGE     =           0.0000       SURFACE LEAKAGE     =           0.0000
           AG WELLS      =  3700675072.0000             AG WELLS      =           0.0000

               TOTAL OUT =  7314105344.0000                 TOTAL OUT =          70.6248

                IN - OUT =       67584.0000                  IN - OUT =       2.6169E-03

     PERCENT DISCREPANCY =           0.00         PERCENT DISCREPANCY =           0.00






         TIME SUMMARY AT END OF TIME STEP   30 IN STRESS PERIOD   23
                    SECONDS     MINUTES      HOURS       DAYS        YEARS
                    -----------------------------------------------------------
   TIME STEP LENGTH  87667.      1461.1      24.352      1.0147     2.77799E-03
 STRESS PERIOD TIME 2.63000E+06  43833.      730.56      30.440     8.33397E-02
         TOTAL TIME 5.79467E+07 9.65778E+05  16096.      670.68      1.8362    
1
1
                            STRESS PERIOD NO.   24, LENGTH =   2630000.    
                            -----------------------------------------------

                              NUMBER OF TIME STEPS =    30

                               MULTIPLIER FOR DELT =     1.000

                            INITIAL TIME STEP SIZE =   87666.66    

 REUSING NON-PARAMETER GHB CELLS FROM LAST STRESS PERIOD

      2 GHB CELLS

 REUSING STREAM SEGMENT DATA FROM LAST STRESS PERIOD



            AREAL INFILTRATION RATE
 READING ON UNIT   19 WITH FORMAT: (FREE)              

            1           2           3           4           5           6           7           8           9          10
 ........................................................................................................................
   1   1.0000E-10  2.0000E-10   0.000       0.000       0.000       0.000       0.000       0.000       0.000       0.000    
   2   2.0000E-10  1.0000E-10  2.0000E-10   0.000       0.000      8.0000E-10  8.0000E-10  5.0000E-10   0.000       0.000    
   3    0.000      5.0000E-10  1.0000E-10  1.0000E-10  8.0000E-10  8.0000E-10  5.0000E-10  5.0000E-10   0.000       0.000    
   4   8.0000E-10  5.0000E-10  1.0000E-10  1.0000E-10  1.0000E-10  1.0000E-10  1.0000E-10  1.0000E-10  2.0000E-10   0.000    
   5   8.0000E-10  5.0000E-10  1.0000E-10  1.0000E-10  1.0000E-10  1.0000E-10  1.0000E-10  1.0000E-10  1.0000E-10  1.0000E-10
   6   8.0000E-10  5.0000E-10  5.0000E-10  2.0000E-10  2.0000E-10  1.0000E-10  1.0000E-10  1.0000E-10  1.0000E-10  5.0000E-10
   7   8.0000E-10  5.0000E-10  5.0000E-10  2.0000E-10  2.0000E-10  1.0000E-10  1.0000E-10  2.0000E-10  2.0000E-10   0.000    
   8    0.000      5.0000E-10  5.0000E-10  2.0000E-10  2.0000E-10  1.0000E-10  1.0000E-10  2.0000E-10  5.0000E-10   0.000    
   9    0.000      5.0000E-10  5.0000E-10  2.0000E-10  2.0000E-10  1.0000E-10  1.0000E-10  2.0000E-10  5.0000E-10   0.000    
  10    0.000      5.0000E-10  5.0000E-10  2.0000E-10  2.0000E-10  1.0000E-10  1.0000E-10  2.0000E-10  5.0000E-10  8.0000E-10
  11    0.000      1.0000E-10  1.0000E-10  1.0000E-10  1.0000E-10  1.0000E-10  1.0000E-10  2.0000E-10  5.0000E-10   0.000    
  12   1.0000E-10  1.0000E-10  1.0000E-10  1.0000E-10  1.0000E-10  1.0000E-10  1.0000E-10  1.0000E-10  2.0000E-10   0.000    
  13   1.0000E-10  1.0000E-10  2.0000E-10  2.0000E-10  2.0000E-10  2.0000E-10  2.0000E-10  1.0000E-10  1.0000E-10   0.000    
  14    0.000      2.0000E-10  5.0000E-10  5.0000E-10  5.0000E-10  5.0000E-10  5.0000E-10  2.0000E-10  1.0000E-10   0.000    
  15    0.000       0.000      8.0000E-10  8.0000E-10  8.0000E-10  8.0000E-10   0.000       0.000       0.000       0.000    

                  ET RATE =  5.000000E-10

 USING ET EXTINCTION DEPTH FROM PREVIOUS STRESS PERIOD. CURRENT PERIOD IS:      24

 USING EXTINCTION WATER CONTENT FROM PREVIOUS STRESS PERIOD. CURRENT PERIOD IS:      24

 USING AIR ENTRY PRESSURE FROM PREVIOUS STRESS PERIOD. CURRENT PERIOD IS:      24

 USING ROOT PRESSURE HEAD FROM PREVIOUS STRESS PERIOD. CURRENT PERIOD IS:      24

 USING ROOT ACTIVITY FROM PREVIOUS STRESS PERIOD. CURRENT PERIOD IS:      24

 PROCESSING AG STRESS PERIOD DATA

 READING AG STRESS PERIOD DATA

 READING IRRIGATION SEGMENT

 READING IRRIGATION WELL

 READING SUPPLEMENTAL WELL

 END PROCESSING AG STRESS PERIOD DATA OPTIONS
 
 SOLVING FOR HEAD 
                                                   Max.-Head-Change                         Max.-Flux-Residual
  Residual-Control   Outer-Iter.   Inner-Iter.     Column Row Layer    Maximum-Head-Change  Column Row Layer    Maximum-Flux-Residual          L2-NORM 
          0                 1           2             4    7     1       0.1569349494E+00       4    7    1         0.8440448671E+01      0.1275482096E+02
          0                 2           2             4    7     1       0.6136975361E-01       4    7    1         0.3316746001E+01      0.4854254878E+01
          0                 3           2             4    7     1       0.2405775748E-01       4    7    1         0.1298097477E+01      0.1894657939E+01
          0                 4           2             4    7     1       0.9434567446E-02       4    7    1         0.5090101965E+00      0.7427864855E+00
          0                 5           2             4    7     1       0.3700866611E-02       4    7    1         0.1996249304E+00      0.2912447270E+00
          0                 6           2             4    7     1       0.1452047497E-02       4    7    1         0.7831030194E-01      0.1142272615E+00
          0                 7           2             4    7     1       0.5698290262E-03       4    7    1         0.3072665397E-01      0.4480988618E-01
          0                 8           2             4    7     1       0.2236598086E-03       4    7    1         0.1205858584E-01      0.1758174859E-01
          0                 9           1             4    7     1       0.8780217682E-04       4    7    1         0.4733210499E-02      0.6899628471E-02

    ------------------------------------------------
       NWT REQUIRED            9 OUTER ITERATIONS 
       AND A TOTAL OF         17 INNER ITERATIONS.
    ------------------------------------------------

 NO OUTPUT CONTROL FOR STRESS PERIOD   24   TIME STEP    1
 
 SOLVING FOR HEAD 
                                                   Max.-Head-Change                         Max.-Flux-Residual
  Residual-Control   Outer-Iter.   Inner-Iter.     Column Row Layer    Maximum-Head-Change  Column Row Layer    Maximum-Flux-Residual          L2-NORM 
          0                 1           2             4    7     1       0.1461873334E+00       4    7    1         0.7891104995E+01      0.1233164539E+02
          0                 2           2             4    7     1       0.5731297394E-01       4    7    1         0.3092942875E+01      0.4556527672E+01
          0                 3           2             4    7     1       0.2247575125E-01       4    7    1         0.1212640292E+01      0.1775746626E+01
          0                 4           2             4    7     1       0.8816009301E-02       4    7    1         0.4755537560E+00      0.6962590225E+00
          0                 5           2             4    7     1       0.3458753783E-02       4    7    1         0.1865465802E+00      0.2730528469E+00
          0                 6           2             4    7     1       0.1357222125E-02       4    7    1         0.7318987204E-01      0.1071071414E+00
          0                 7           2             4    7     1       0.5326724342E-03       4    7    1         0.2872101537E-01      0.4202145952E-01
          0                 8           2             4    7     1       0.2090943055E-03       4    7    1         0.1127261788E-01      0.1648910187E-01
          0                 9           1             4    7     1       0.8209030076E-04       4    7    1         0.4425083590E-02      0.6471258749E-02

    ------------------------------------------------
       NWT REQUIRED            9 OUTER ITERATIONS 
       AND A TOTAL OF         17 INNER ITERATIONS.
    ------------------------------------------------

 NO OUTPUT CONTROL FOR STRESS PERIOD   24   TIME STEP    2
 
 SOLVING FOR HEAD 
                                                   Max.-Head-Change                         Max.-Flux-Residual
  Residual-Control   Outer-Iter.   Inner-Iter.     Column Row Layer    Maximum-Head-Change  Column Row Layer    Maximum-Flux-Residual          L2-NORM 
          0                 1           2             4    7     1       0.1347605086E+00       4    7    1         0.7358607686E+01      0.1048939875E+02
          0                 2           2             4    7     1       0.5207897664E-01       4    7    1         0.2842772321E+01      0.3667399753E+01
          0                 3           2             4    7     1       0.2014327753E-01       4    7    1         0.1098678974E+01      0.1395597263E+01
          0                 4           2             4    7     1       0.7792509129E-02       4    7    1         0.4249910740E+00      0.5362759032E+00
          0                 5           2             4    7     1       0.3014700107E-02       4    7    1         0.1644157863E+00      0.2061260564E+00
          0                 6           2             4    7     1       0.1166308322E-02       4    7    1         0.6360782659E-01      0.7924220564E-01
          0                 7           2             4    7     1       0.4512115588E-03       4    7    1         0.2460824286E-01      0.3046809214E-01
          0                 8           2             4    7     1       0.1745594225E-03       4    7    1         0.9520221307E-02      0.1171642678E-01
          0                 9           1             4    7     1       0.6753085809E-04       4    7    1         0.3683067365E-02      0.4506145170E-02

    ------------------------------------------------
       NWT REQUIRED            9 OUTER ITERATIONS 
       AND A TOTAL OF         17 INNER ITERATIONS.
    ------------------------------------------------

 NO OUTPUT CONTROL FOR STRESS PERIOD   24   TIME STEP    3
 
 SOLVING FOR HEAD 
                                                   Max.-Head-Change                         Max.-Flux-Residual
  Residual-Control   Outer-Iter.   Inner-Iter.     Column Row Layer    Maximum-Head-Change  Column Row Layer    Maximum-Flux-Residual          L2-NORM 
          0                 1           2             4    6     1       0.1894919093E+00       4    6    1         0.1016138908E+02      0.1399323085E+02
          0                 2           2             4    6     1       0.7486513887E-01       4    6    1         0.4015959250E+01      0.5261751071E+01
          0                 3           2             4    6     1       0.2957930485E-01       4    6    1         0.1586520002E+01      0.2075463263E+01
          0                 4           2             4    6     1       0.1168730642E-01       4    6    1         0.6268575206E+00      0.8206881137E+00
          0                 5           2             4    6     1       0.4618045075E-02       4    6    1         0.2476833520E+00      0.3245979608E+00
          0                 6           2             4    6     1       0.1824813458E-02       4    6    1         0.9786892547E-01      0.1283829455E+00
          0                 7           2             4    6     1       0.7210987390E-03       4    6    1         0.3867304345E-01      0.5077797272E-01
          0                 8           2             4    6     1       0.2849616245E-03       4    6    1         0.1528227030E-01      0.2008385788E-01
          0                 9           2             4    6     1       0.1126141229E-03       4    6    1         0.6039244351E-02      0.7943700455E-02
          0                10           1             4    6     1       0.4450549863E-04       4    6    1         0.2386668287E-02      0.3141971372E-02

    ------------------------------------------------
       NWT REQUIRED           10 OUTER ITERATIONS 
       AND A TOTAL OF         19 INNER ITERATIONS.
    ------------------------------------------------

 NO OUTPUT CONTROL FOR STRESS PERIOD   24   TIME STEP    4
 
 SOLVING FOR HEAD 
                                                   Max.-Head-Change                         Max.-Flux-Residual
  Residual-Control   Outer-Iter.   Inner-Iter.     Column Row Layer    Maximum-Head-Change  Column Row Layer    Maximum-Flux-Residual          L2-NORM 
          0                 1           2             4    6     1       0.1931071455E+00       4    6    1         0.1036434792E+02      0.1373194906E+02
          0                 2           2             4    6     1       0.7617392648E-01       4    6    1         0.4091664978E+01      0.5204255444E+01
          0                 3           2             4    6     1       0.3005226230E-01       4    6    1         0.1613705410E+01      0.2053552915E+01
          0                 4           2             4    6     1       0.1185787193E-01       4    6    1         0.6366932843E+00      0.8123470334E+00
          0                 5           2             4    6     1       0.4679424478E-02       4    6    1         0.2512273748E+00      0.3214066919E+00
          0                 6           2             4    6     1       0.1846850791E-02       4    6    1         0.9914374228E-01      0.1271678698E+00
          0                 7           2             4    6     1       0.7289917132E-03       4    6    1         0.3913048097E-01      0.5031691419E-01
          0                 8           2             4    6     1       0.2877813439E-03       4    6    1         0.1544601228E-01      0.1990960993E-01
          0                 9           2             4    6     1       0.1136187191E-03       4    6    1         0.6097703205E-02      0.7878126393E-02
          0                10           1             4    6     1       0.4486238895E-04       4    6    1         0.2407481738E-02      0.3117409074E-02

    ------------------------------------------------
       NWT REQUIRED           10 OUTER ITERATIONS 
       AND A TOTAL OF         19 INNER ITERATIONS.
    ------------------------------------------------

 NO OUTPUT CONTROL FOR STRESS PERIOD   24   TIME STEP    5
 
 SOLVING FOR HEAD 
                                                   Max.-Head-Change                         Max.-Flux-Residual
  Residual-Control   Outer-Iter.   Inner-Iter.     Column Row Layer    Maximum-Head-Change  Column Row Layer    Maximum-Flux-Residual          L2-NORM 
          0                 1           2             4    6     1       0.1819341312E+00       4    6    1         0.9758612812E+01      0.1295143890E+02
          0                 2           2             4    6     1       0.7161899470E-01       4    6    1         0.3855533619E+01      0.4656643360E+01
          0                 3           2             4    6     1       0.2804202320E-01       4    6    1         0.1516355606E+01      0.1697657552E+01
          0                 4           2             4    6     1       0.1095495233E-01       4    6    1         0.5930196079E+00      0.6621788366E+00
          0                 5           2             4    6     1       0.4277851200E-02       4    6    1         0.2316087848E+00      0.2591016724E+00
          0                 6           2             4    6     1       0.1670452417E-02       4    6    1         0.9043827195E-01      0.1013910155E+00
          0                 7           2             4    6     1       0.6523419262E-03       4    6    1         0.3531537171E-01      0.3967653098E-01
          0                 8           2             4    6     1       0.2547750627E-03       4    6    1         0.1379153576E-01      0.1552670107E-01
          0                 9           1             4    6     1       0.9951292173E-04       4    6    1         0.5386450577E-02      0.6076274875E-02

    ------------------------------------------------
       NWT REQUIRED            9 OUTER ITERATIONS 
       AND A TOTAL OF         17 INNER ITERATIONS.
    ------------------------------------------------

 NO OUTPUT CONTROL FOR STRESS PERIOD   24   TIME STEP    6
 
 SOLVING FOR HEAD 
                                                   Max.-Head-Change                         Max.-Flux-Residual
  Residual-Control   Outer-Iter.   Inner-Iter.     Column Row Layer    Maximum-Head-Change  Column Row Layer    Maximum-Flux-Residual          L2-NORM 
          0                 1           2             4    6     1       0.1684976750E+00       4    6    1         0.9166553303E+01      0.1058902344E+02
          0                 2           2             4    6     1       0.6530368934E-01       4    6    1         0.3557916329E+01      0.3595902618E+01
          0                 3           2             4    6     1       0.2526246965E-01       4    6    1         0.1378307237E+01      0.1379081561E+01
          0                 4           2             4    6     1       0.9768623034E-02       4    6    1         0.5330101279E+00      0.5330616400E+00
          0                 5           2             4    6     1       0.3777032784E-02       4    6    1         0.2061028741E+00      0.2061148548E+00
          0                 6           2             4    6     1       0.1460357776E-02       4    6    1         0.7968827812E-01      0.7969242860E-01
          0                 7           2             4    6     1       0.5646324282E-03       4    6    1         0.3081076320E-01      0.3081232416E-01
          0                 8           2             4    6     1       0.2183091483E-03       4    6    1         0.1191265931E-01      0.1191325944E-01
          0                 9           1             4    6     1       0.8440690190E-04       4    6    1         0.4605903374E-02      0.4606135115E-02

    ------------------------------------------------
       NWT REQUIRED            9 OUTER ITERATIONS 
       AND A TOTAL OF         17 INNER ITERATIONS.
    ------------------------------------------------

 NO OUTPUT CONTROL FOR STRESS PERIOD   24   TIME STEP    7
 
 SOLVING FOR HEAD 
                                                   Max.-Head-Change                         Max.-Flux-Residual
  Residual-Control   Outer-Iter.   Inner-Iter.     Column Row Layer    Maximum-Head-Change  Column Row Layer    Maximum-Flux-Residual          L2-NORM 
          0                 1           2             4    6     1       0.1529489254E+00       4    6    1         0.8414505478E+01      0.1007920797E+02
          0                 2           2             4    6     1       0.5912169438E-01       4    6    1         0.3220257927E+01      0.3266951315E+01
          0                 3           2             4    6     1       0.2285353832E-01       4    6    1         0.1247734926E+01      0.1248294627E+01
          0                 4           2             4    6     1       0.8834076044E-02       4    6    1         0.4820989865E+00      0.4821074259E+00
          0                 5           2             4    6     1       0.3414830644E-02       4    6    1         0.1863640008E+00      0.1863655379E+00
          0                 6           2             4    6     1       0.1320010384E-02       4    6    1         0.7203904767E-01      0.7203966387E-01
          0                 7           2             4    6     1       0.5102530155E-03       4    6    1         0.2784689367E-01      0.2784712993E-01
          0                 8           2             4    6     1       0.1972394734E-03       4    6    1         0.1076427957E-01      0.1076437100E-01
          0                 9           1             4    6     1       0.7624337186E-04       4    6    1         0.4160957384E-02      0.4160992847E-02

    ------------------------------------------------
       NWT REQUIRED            9 OUTER ITERATIONS 
       AND A TOTAL OF         17 INNER ITERATIONS.
    ------------------------------------------------

 NO OUTPUT CONTROL FOR STRESS PERIOD   24   TIME STEP    8
 
 SOLVING FOR HEAD 
                                                   Max.-Head-Change                         Max.-Flux-Residual
  Residual-Control   Outer-Iter.   Inner-Iter.     Column Row Layer    Maximum-Head-Change  Column Row Layer    Maximum-Flux-Residual          L2-NORM 
          0                 1           2             4    6     1       0.1388172326E+00       4    6    1         0.7629186080E+01      0.9177593335E+01
          0                 2           2             4    6     1       0.5365769589E-01       4    6    1         0.2923452696E+01      0.2967623165E+01
          0                 3           2             4    6     1       0.2074054693E-01       4    6    1         0.1132361464E+01      0.1132896181E+01
          0                 4           2             4    6     1       0.8016954496E-02       4    6    1         0.4375236361E+00      0.4375310854E+00
          0                 5           2             4    6     1       0.3098838560E-02       4    6    1         0.1691244099E+00      0.1691258151E+00
          0                 6           2             4    6     1       0.1197811870E-02       4    6    1         0.6537233205E-01      0.6537289103E-01
          0                 7           2             4    6     1       0.4629971555E-03       4    6    1         0.2526877585E-01      0.2526899041E-01
          0                 8           2             4    6     1       0.1789649784E-03       4    6    1         0.9767285747E-02      0.9767368870E-02
          0                 9           1             4    6     1       0.6917637353E-04       4    6    1         0.3775406046E-02      0.3775438143E-02

    ------------------------------------------------
       NWT REQUIRED            9 OUTER ITERATIONS 
       AND A TOTAL OF         17 INNER ITERATIONS.
    ------------------------------------------------

 NO OUTPUT CONTROL FOR STRESS PERIOD   24   TIME STEP    9
 
 SOLVING FOR HEAD 
                                                   Max.-Head-Change                         Max.-Flux-Residual
  Residual-Control   Outer-Iter.   Inner-Iter.     Column Row Layer    Maximum-Head-Change  Column Row Layer    Maximum-Flux-Residual          L2-NORM 
          0                 1           2             4    6     1       0.1261264372E+00       4    6    1         0.6924147934E+01      0.8381046790E+01
          0                 2           2             4    6     1       0.4875040645E-01       4    6    1         0.2656952137E+01      0.2698584266E+01
          0                 3           2             4    6     1       0.1889434994E-01       4    6    1         0.1029862224E+01      0.1030391322E+01
          0                 4           2             4    6     1       0.7317910541E-02       4    6    1         0.3987468471E+00      0.3987531270E+00
          0                 5           2             4    6     1       0.2834279434E-02       4    6    1         0.1544422251E+00      0.1544433331E+00
          0                 6           2             4    6     1       0.1097737232E-02       4    6    1         0.5981638461E-01      0.5981682449E-01
          0                 7           2             4    6     1       0.4251617502E-03       4    6    1         0.2316735464E-01      0.2316752378E-01
          0                 8           2             4    6     1       0.1646682999E-03       4    6    1         0.8972887819E-02      0.8972953395E-02
          0                 9           1             4    6     1       0.6377725545E-04       4    6    1         0.3475266395E-02      0.3475291777E-02

    ------------------------------------------------
       NWT REQUIRED            9 OUTER ITERATIONS 
       AND A TOTAL OF         17 INNER ITERATIONS.
    ------------------------------------------------

 NO OUTPUT CONTROL FOR STRESS PERIOD   24   TIME STEP   10
 
 SOLVING FOR HEAD 
                                                   Max.-Head-Change                         Max.-Flux-Residual
  Residual-Control   Outer-Iter.   Inner-Iter.     Column Row Layer    Maximum-Head-Change  Column Row Layer    Maximum-Flux-Residual          L2-NORM 
          0                 1           2             4    6     1       0.1150503847E+00       4    6    1         0.6294772954E+01      0.7684474067E+01
          0                 2           2             4    6     1       0.4455694801E-01       4    6    1         0.2425714794E+01      0.2465435364E+01
          0                 3           2             4    6     1       0.1725625718E-01       4    6    1         0.9405522069E+00      0.9410442579E+00
          0                 4           2             4    6     1       0.6683110463E-02       4    6    1         0.3641754488E+00      0.3641808083E+00
          0                 5           2             4    6     1       0.2588278843E-02       4    6    1         0.1410433233E+00      0.1410443483E+00
          0                 6           2             4    6     1       0.1002405940E-02       4    6    1         0.5462403943E-01      0.5462444138E-01
          0                 7           2             4    6     1       0.3882185270E-03       4    6    1         0.2115518754E-01      0.2115534232E-01
          0                 8           2             4    6     1       0.1503518946E-03       4    6    1         0.8193123595E-02      0.8193183611E-02
          0                 9           1             4    6     1       0.5822929892E-04       4    6    1         0.3173088599E-02      0.3173111827E-02

    ------------------------------------------------
       NWT REQUIRED            9 OUTER ITERATIONS 
       AND A TOTAL OF         17 INNER ITERATIONS.
    ------------------------------------------------

 NO OUTPUT CONTROL FOR STRESS PERIOD   24   TIME STEP   11
 
 SOLVING FOR HEAD 
                                                   Max.-Head-Change                         Max.-Flux-Residual
  Residual-Control   Outer-Iter.   Inner-Iter.     Column Row Layer    Maximum-Head-Change  Column Row Layer    Maximum-Flux-Residual          L2-NORM 
          0                 1           2             4    6     1       0.1051342396E+00       4    6    1         0.5745704133E+01      0.7090370707E+01
          0                 2           2             4    6     1       0.4071470339E-01       4    6    1         0.2217305525E+01      0.2255892796E+01
          0                 3           2             4    6     1       0.1576745192E-01       4    6    1         0.8593909892E+00      0.8598736842E+00
          0                 4           2             4    6     1       0.6106221850E-02       4    6    1         0.3327546825E+00      0.3327594169E+00
          0                 5           2             4    6     1       0.2364743253E-02       4    6    1         0.1288670417E+00      0.1288679890E+00
          0                 6           2             4    6     1       0.9157892578E-03       4    6    1         0.4990596346E-01      0.4990633087E-01
          0                 7           2             4    6     1       0.3546558655E-03       4    6    1         0.1932699937E-01      0.1932714103E-01
          0                 8           2             4    6     1       0.1373468709E-03       4    6    1         0.7484728244E-02      0.7484783140E-02
          0                 9           1             4    6     1       0.5319004999E-04       4    6    1         0.2898596070E-02      0.2898617331E-02

    ------------------------------------------------
       NWT REQUIRED            9 OUTER ITERATIONS 
       AND A TOTAL OF         17 INNER ITERATIONS.
    ------------------------------------------------

 NO OUTPUT CONTROL FOR STRESS PERIOD   24   TIME STEP   12
 
 SOLVING FOR HEAD 
                                                   Max.-Head-Change                         Max.-Flux-Residual
  Residual-Control   Outer-Iter.   Inner-Iter.     Column Row Layer    Maximum-Head-Change  Column Row Layer    Maximum-Flux-Residual          L2-NORM 
          0                 1           2             4    6     1       0.9618532180E-01       4    6    1         0.5250337324E+01      0.6566331841E+01
          0                 2           2             4    6     1       0.3724753028E-01       4    6    1         0.2029208485E+01      0.2067171404E+01
          0                 3           2             4    6     1       0.1442409960E-01       4    6    1         0.7861550748E+00      0.7866344020E+00
          0                 4           2             4    6     1       0.5585740148E-02       4    6    1         0.3044041009E+00      0.3044083041E+00
          0                 5           2             4    6     1       0.2163082403E-02       4    6    1         0.1178815328E+00      0.1178824097E+00
          0                 6           2             4    6     1       0.8376556511E-03       4    6    1         0.4564966679E-01      0.4565000295E-01
          0                 7           2             4    6     1       0.3243829573E-03       4    6    1         0.1767789085E-01      0.1767802065E-01
          0                 8           2             4    6     1       0.1256176177E-03       4    6    1         0.6845780313E-02      0.6845830632E-02
          0                 9           1             4    6     1       0.4864554621E-04       4    6    1         0.2651035356E-02      0.2651054949E-02

    ------------------------------------------------
       NWT REQUIRED            9 OUTER ITERATIONS 
       AND A TOTAL OF         17 INNER ITERATIONS.
    ------------------------------------------------

 NO OUTPUT CONTROL FOR STRESS PERIOD   24   TIME STEP   13
 
 SOLVING FOR HEAD 
                                                   Max.-Head-Change                         Max.-Flux-Residual
  Residual-Control   Outer-Iter.   Inner-Iter.     Column Row Layer    Maximum-Head-Change  Column Row Layer    Maximum-Flux-Residual          L2-NORM 
          0                 1           2             4    6     1       0.5851461047E-01       4    6    1         0.3190464672E+01      0.4936979042E+01
          0                 2           2             4    6     1       0.5212942816E-02       4    6    1         0.2839877040E+00      0.4718009503E+00
          0                 3           2             4    6     1       0.4644375424E-03       4    6    1         0.2531675371E-01      0.3654974299E-01
          0                 4           1             4    6     1       0.4137841653E-04       4    6    1         0.2254117433E-02      0.2499788363E-02

    ------------------------------------------------
       NWT REQUIRED            4 OUTER ITERATIONS 
       AND A TOTAL OF          7 INNER ITERATIONS.
    ------------------------------------------------

 NO OUTPUT CONTROL FOR STRESS PERIOD   24   TIME STEP   14
 
 SOLVING FOR HEAD 
                                                   Max.-Head-Change                         Max.-Flux-Residual
  Residual-Control   Outer-Iter.   Inner-Iter.     Column Row Layer    Maximum-Head-Change  Column Row Layer    Maximum-Flux-Residual          L2-NORM 
          0                 1           2             4    6     1      -0.6558187744E-01       4    6    1        -0.3576237632E+01      0.5089548323E+01
          0                 2           2             4    6     1       0.6257933950E-02       4    6    1         0.3508163961E+00      0.5041908179E+00
          0                 3           2             4    6     1      -0.4261461626E-03       4    6    1        -0.2455742989E-01      0.3529359733E-01
          0                 4           1             4    6     1       0.1695673325E-04       4    6    1         0.1004399024E-02      0.1443579767E-02

    ------------------------------------------------
       NWT REQUIRED            4 OUTER ITERATIONS 
       AND A TOTAL OF          7 INNER ITERATIONS.
    ------------------------------------------------

 NO OUTPUT CONTROL FOR STRESS PERIOD   24   TIME STEP   15
 
 SOLVING FOR HEAD 
                                                   Max.-Head-Change                         Max.-Flux-Residual
  Residual-Control   Outer-Iter.   Inner-Iter.     Column Row Layer    Maximum-Head-Change  Column Row Layer    Maximum-Flux-Residual          L2-NORM 
          0                 1           2             4    6     1      -0.6263630402E-01       4    6    1        -0.3414065747E+01      0.4882642065E+01
          0                 2           2             4    6     1       0.6092414392E-02       4    6    1         0.3413796202E+00      0.4882406427E+00
          0                 3           2             4    6     1      -0.4148746468E-03       4    6    1        -0.2389683874E-01      0.3417707867E-01
          0                 4           1             4    6     1       0.1650823020E-04       4    6    1         0.9773808802E-03      0.1397974537E-02

    ------------------------------------------------
       NWT REQUIRED            4 OUTER ITERATIONS 
       AND A TOTAL OF          7 INNER ITERATIONS.
    ------------------------------------------------

 NO OUTPUT CONTROL FOR STRESS PERIOD   24   TIME STEP   16
 
 SOLVING FOR HEAD 
                                                   Max.-Head-Change                         Max.-Flux-Residual
  Residual-Control   Outer-Iter.   Inner-Iter.     Column Row Layer    Maximum-Head-Change  Column Row Layer    Maximum-Flux-Residual          L2-NORM 
          0                 1           2             4    6     1      -0.5973676628E-01       4    6    1        -0.3254564149E+01      0.4683937223E+01
          0                 2           2             4    6     1       0.5810406831E-02       4    6    1         0.3254321180E+00      0.4683726069E+00
          0                 3           2             4    6     1      -0.3956706019E-03       4    6    1        -0.2278048796E-01      0.3278628515E-01
          0                 4           1             4    6     1       0.1574408526E-04       4    6    1         0.9317221809E-03      0.1340959927E-02

    ------------------------------------------------
       NWT REQUIRED            4 OUTER ITERATIONS 
       AND A TOTAL OF          7 INNER ITERATIONS.
    ------------------------------------------------

 NO OUTPUT CONTROL FOR STRESS PERIOD   24   TIME STEP   17
 
 SOLVING FOR HEAD 
                                                   Max.-Head-Change                         Max.-Flux-Residual
  Residual-Control   Outer-Iter.   Inner-Iter.     Column Row Layer    Maximum-Head-Change  Column Row Layer    Maximum-Flux-Residual          L2-NORM 
          0                 1           2             4    6     1      -0.5699662467E-01       4    6    1        -0.3103897433E+01      0.4497249846E+01
          0                 2           2             4    6     1       0.5543900108E-02       4    6    1         0.3103678229E+00      0.4497060454E+00
          0                 3           2             4    6     1      -0.3775221466E-03       4    6    1        -0.2172596437E-01      0.3147960255E-01
          0                 4           1             4    6     1       0.1502194312E-04       4    6    1         0.8885922159E-03      0.1287515328E-02

    ------------------------------------------------
       NWT REQUIRED            4 OUTER ITERATIONS 
       AND A TOTAL OF          7 INNER ITERATIONS.
    ------------------------------------------------

 NO OUTPUT CONTROL FOR STRESS PERIOD   24   TIME STEP   18
 
 SOLVING FOR HEAD 
                                                   Max.-Head-Change                         Max.-Flux-Residual
  Residual-Control   Outer-Iter.   Inner-Iter.     Column Row Layer    Maximum-Head-Change  Column Row Layer    Maximum-Flux-Residual          L2-NORM 
          0                 1           2             4    6     1      -0.5440591482E-01       4    6    1        -0.2961510393E+01      0.4321724346E+01
          0                 2           2             4    6     1       0.5291925372E-02       4    6    1         0.2961312457E+00      0.4321188536E+00
          0                 3           2             4    6     1      -0.3603633007E-03       4    6    1        -0.2072938342E-01      0.3024848094E-01
          0                 4           1             4    6     1       0.1433917820E-04       4    6    1         0.8478320945E-03      0.1237164084E-02

    ------------------------------------------------
       NWT REQUIRED            4 OUTER ITERATIONS 
       AND A TOTAL OF          7 INNER ITERATIONS.
    ------------------------------------------------

 NO OUTPUT CONTROL FOR STRESS PERIOD   24   TIME STEP   19
 
 SOLVING FOR HEAD 
                                                   Max.-Head-Change                         Max.-Flux-Residual
  Residual-Control   Outer-Iter.   Inner-Iter.     Column Row Layer    Maximum-Head-Change  Column Row Layer    Maximum-Flux-Residual          L2-NORM 
          0                 1           2             4    6     1      -0.5195563901E-01       4    6    1        -0.2826901108E+01      0.4156609239E+01
          0                 2           2             4    6     1       0.5053607926E-02       4    6    1         0.2826722220E+00      0.4156456592E+00
          0                 3           2             4    6     1      -0.3441344970E-03       4    6    1        -0.1978723334E-01      0.2909534130E-01
          0                 4           1             4    6     1       0.1369342024E-04       4    6    1         0.8092981814E-03      0.1189996743E-02

    ------------------------------------------------
       NWT REQUIRED            4 OUTER ITERATIONS 
       AND A TOTAL OF          7 INNER ITERATIONS.
    ------------------------------------------------

 NO OUTPUT CONTROL FOR STRESS PERIOD   24   TIME STEP   20
 
 SOLVING FOR HEAD 
                                                   Max.-Head-Change                         Max.-Flux-Residual
  Residual-Control   Outer-Iter.   Inner-Iter.     Column Row Layer    Maximum-Head-Change  Column Row Layer    Maximum-Flux-Residual          L2-NORM 
          0                 1           2             4    6     1      -0.4963715478E-01       4    6    1        -0.2699588249E+01      0.4001150647E+01
          0                 2           2             4    6     1       0.4828107311E-02       4    6    1         0.2699426437E+00      0.4001013329E+00
          0                 3           2             4    6     1      -0.3287784999E-03       4    6    1        -0.1889614631E-01      0.2800721719E-01
          0                 4           1             4    6     1       0.1308239201E-04       4    6    1         0.7728527482E-03      0.1145498082E-02

    ------------------------------------------------
       NWT REQUIRED            4 OUTER ITERATIONS 
       AND A TOTAL OF          7 INNER ITERATIONS.
    ------------------------------------------------

 NO OUTPUT CONTROL FOR STRESS PERIOD   24   TIME STEP   21
 
 SOLVING FOR HEAD 
                                                   Max.-Head-Change                         Max.-Flux-Residual
  Residual-Control   Outer-Iter.   Inner-Iter.     Column Row Layer    Maximum-Head-Change  Column Row Layer    Maximum-Flux-Residual          L2-NORM 
          0                 1           2             4    6     1      -0.4744241754E-01       4    6    1        -0.2579123688E+01      0.3854658950E+01
          0                 2           2             4    6     1       0.4614641368E-02       4    6    1         0.2578977195E+00      0.3854535336E+00
          0                 3           2             4    6     1      -0.3142420439E-03       4    6    1        -0.1805298676E-01      0.2698186445E-01
          0                 4           1             4    6     1       0.1250397414E-04       4    6    1         0.7383675390E-03      0.1103557010E-02

    ------------------------------------------------
       NWT REQUIRED            4 OUTER ITERATIONS 
       AND A TOTAL OF          7 INNER ITERATIONS.
    ------------------------------------------------

 NO OUTPUT CONTROL FOR STRESS PERIOD   24   TIME STEP   22
 
 SOLVING FOR HEAD 
                                                   Max.-Head-Change                         Max.-Flux-Residual
  Residual-Control   Outer-Iter.   Inner-Iter.     Column Row Layer    Maximum-Head-Change  Column Row Layer    Maximum-Flux-Residual          L2-NORM 
          0                 1           2             4    6     1      -0.4536366191E-01       4    6    1        -0.2465075538E+01      0.3716490950E+01
          0                 2           2             4    6     1       0.4412455017E-02       4    6    1         0.2464942801E+00      0.3716379513E+00
          0                 3           2             4    6     1      -0.3004737090E-03       4    6    1        -0.1725473266E-01      0.2601475590E-01
          0                 4           1             4    6     1       0.1195612022E-04       4    6    1         0.7057189748E-03      0.1064001383E-02

    ------------------------------------------------
       NWT REQUIRED            4 OUTER ITERATIONS 
       AND A TOTAL OF          7 INNER ITERATIONS.
    ------------------------------------------------

 NO OUTPUT CONTROL FOR STRESS PERIOD   24   TIME STEP   23
 
 SOLVING FOR HEAD 
                                                   Max.-Head-Change                         Max.-Flux-Residual
  Residual-Control   Outer-Iter.   Inner-Iter.     Column Row Layer    Maximum-Head-Change  Column Row Layer    Maximum-Flux-Residual          L2-NORM 
          0                 1           2             4    6     1      -0.4339418952E-01       4    6    1        -0.2357070652E+01      0.3586085363E+01
          0                 2           2             4    6     1       0.4220896930E-02       4    6    1         0.2356950276E+00      0.3585984861E+00
          0                 3           2             4    6     1      -0.2874291383E-03       4    6    1        -0.1649877295E-01      0.2510198556E-01
          0                 4           1             4    6     1       0.1143706537E-04       4    6    1         0.6748002220E-03      0.1026677121E-02

    ------------------------------------------------
       NWT REQUIRED            4 OUTER ITERATIONS 
       AND A TOTAL OF          7 INNER ITERATIONS.
    ------------------------------------------------

 NO OUTPUT CONTROL FOR STRESS PERIOD   24   TIME STEP   24
 
 SOLVING FOR HEAD 
                                                   Max.-Head-Change                         Max.-Flux-Residual
  Residual-Control   Outer-Iter.   Inner-Iter.     Column Row Layer    Maximum-Head-Change  Column Row Layer    Maximum-Flux-Residual          L2-NORM 
          0                 1           2             4    6     1      -0.4152722341E-01       4    6    1        -0.2254732197E+01      0.3462891222E+01
          0                 2           2             4    6     1       0.4039308114E-02       4    6    1         0.2254622940E+00      0.3462800476E+00
          0                 3           2             4    6     1      -0.2750634557E-03       4    6    1        -0.1578247077E-01      0.2423968971E-01
          0                 4           1             4    6     1       0.1094502405E-04       4    6    1         0.6455034568E-03      0.9914034630E-03

    ------------------------------------------------
       NWT REQUIRED            4 OUTER ITERATIONS 
       AND A TOTAL OF          7 INNER ITERATIONS.
    ------------------------------------------------

 NO OUTPUT CONTROL FOR STRESS PERIOD   24   TIME STEP   25
 
 SOLVING FOR HEAD 
                                                   Max.-Head-Change                         Max.-Flux-Residual
  Residual-Control   Outer-Iter.   Inner-Iter.     Column Row Layer    Maximum-Head-Change  Column Row Layer    Maximum-Flux-Residual          L2-NORM 
          0                 1           2             4    6     1      -0.3975684863E-01       4    6    1        -0.2157730902E+01      0.3346422329E+01
          0                 2           2             4    6     1       0.3867113398E-02       4    6    1         0.2157631652E+00      0.3346340227E+00
          0                 3           2             4    6     1      -0.2633374927E-03       4    6    1        -0.1510352200E-01      0.2342445802E-01
          0                 4           1             4    6     1       0.1047843802E-04       4    6    1         0.6177344694E-03      0.9580624648E-03

    ------------------------------------------------
       NWT REQUIRED            4 OUTER ITERATIONS 
       AND A TOTAL OF          7 INNER ITERATIONS.
    ------------------------------------------------

 NO OUTPUT CONTROL FOR STRESS PERIOD   24   TIME STEP   26
 
 SOLVING FOR HEAD 
                                                   Max.-Head-Change                         Max.-Flux-Residual
  Residual-Control   Outer-Iter.   Inner-Iter.     Column Row Layer    Maximum-Head-Change  Column Row Layer    Maximum-Flux-Residual          L2-NORM 
          0                 1           2             4    6     1      -0.3807713889E-01       4    6    1        -0.2065737939E+01      0.3236215271E+01
          0                 2           2             4    6     1       0.3703736483E-02       4    6    1         0.2065647705E+00      0.3236140908E+00
          0                 3           2             4    6     1      -0.2522120031E-03       4    6    1        -0.1445962555E-01      0.2265305412E-01
          0                 4           1             4    6     1       0.1003574522E-04       4    6    1         0.5913991110E-03      0.9265128088E-03

    ------------------------------------------------
       NWT REQUIRED            4 OUTER ITERATIONS 
       AND A TOTAL OF          7 INNER ITERATIONS.
    ------------------------------------------------

 NO OUTPUT CONTROL FOR STRESS PERIOD   24   TIME STEP   27
 
 SOLVING FOR HEAD 
                                                   Max.-Head-Change                         Max.-Flux-Residual
  Residual-Control   Outer-Iter.   Inner-Iter.     Column Row Layer    Maximum-Head-Change  Column Row Layer    Maximum-Flux-Residual          L2-NORM 
          0                 1           2             4    6     1      -0.3648284059E-01       4    6    1        -0.1978460767E+01      0.3131845032E+01
          0                 2           2             4    6     1       0.3548666486E-02       4    6    1         0.1978378662E+00      0.3131777721E+00
          0                 3           2             4    6     1      -0.2416521961E-03       4    6    1        -0.1384873429E-01      0.2192250700E-01
          0                 4           1             4    6     1       0.9615561488E-05       4    6    1         0.5664136634E-03      0.8966322851E-03

    ------------------------------------------------
       NWT REQUIRED            4 OUTER ITERATIONS 
       AND A TOTAL OF          7 INNER ITERATIONS.
    ------------------------------------------------

 NO OUTPUT CONTROL FOR STRESS PERIOD   24   TIME STEP   28
 
 SOLVING FOR HEAD 
                                                   Max.-Head-Change                         Max.-Flux-Residual
  Residual-Control   Outer-Iter.   Inner-Iter.     Column Row Layer    Maximum-Head-Change  Column Row Layer    Maximum-Flux-Residual          L2-NORM 
          0                 1           2             4    6     1      -0.3496890857E-01       4    6    1        -0.1895619605E+01      0.3032922639E+01
          0                 2           2             4    6     1       0.3401412797E-02       4    6    1         0.1895544835E+00      0.3032861587E+00
          0                 3           2             4    6     1      -0.2316246620E-03       4    6    1        -0.1326889033E-01      0.2123009200E-01
          0                 4           1             4    6     1       0.9216556626E-05       4    6    1         0.5426980224E-03      0.8683187230E-03

    ------------------------------------------------
       NWT REQUIRED            4 OUTER ITERATIONS 
       AND A TOTAL OF          7 INNER ITERATIONS.
    ------------------------------------------------

 NO OUTPUT CONTROL FOR STRESS PERIOD   24   TIME STEP   29
 
 SOLVING FOR HEAD 
                                                   Max.-Head-Change                         Max.-Flux-Residual
  Residual-Control   Outer-Iter.   Inner-Iter.     Column Row Layer    Maximum-Head-Change  Column Row Layer    Maximum-Flux-Residual          L2-NORM 
          0                 1           2             4    6     1      -0.3353077051E-01       4    6    1        -0.1816960224E+01      0.2939085027E+01
          0                 2           2             4    6     1       0.3261530767E-02       4    6    1         0.1816892079E+00      0.2939029552E+00
          0                 3           2             4    6     1      -0.2220991206E-03       4    6    1        -0.1271831453E-01      0.2057325499E-01
          0                 4           1             4    6     1       0.8837527323E-05       4    6    1         0.5201794847E-03      0.8414449647E-03

    ------------------------------------------------
       NWT REQUIRED            4 OUTER ITERATIONS 
       AND A TOTAL OF          7 INNER ITERATIONS.
    ------------------------------------------------

 NO OUTPUT CONTROL FOR STRESS PERIOD   24   TIME STEP   30



 STREAM LISTING     PERIOD     24   STEP       30

 LAYER ROW COL. STREAM  RCH.  FLOW INTO     FLOW TO   FLOW OUT OF   OVRLND.     DIRECT     STREAM       STREAM     STREAM     STREAM   STREAMBED  STREAMBED
                SEG.NO.  NO.  STRM. RCH.    AQUIFER    STRM. RCH.    RUNOFF     PRECIP       ET          HEAD       DEPTH      WIDTH   CONDCTNC.   GRADIENT

   1    1    1     1     1    7.8751E+00  1.2805E-01   7.7471E+00  0.000E+00  0.000E+00  0.000E+00  1.09388E+03  8.295E-01  7.430E+00  3.344E-02  1.276E+00
   1    2    2     1     2    7.7471E+00  1.9663E-01   7.5504E+00  0.000E+00  0.000E+00  0.000E+00  1.08888E+03  8.238E-01  7.346E+00  5.142E-02  1.275E+00
   1    3    3     1     3    7.5504E+00  1.6607E-01   7.3844E+00  0.000E+00  0.000E+00  0.000E+00  1.08324E+03  8.173E-01  7.251E+00  4.350E-02  1.272E+00
   1    3    4     1     4    7.3844E+00  1.5159E-01   7.2328E+00  0.000E+00  0.000E+00  0.000E+00  1.07822E+03  8.115E-01  7.166E+00  3.977E-02  1.270E+00
   1    4    5     2     1    5.2328E+00  2.7028E-01   4.9625E+00  0.000E+00  0.000E+00  0.000E+00  1.07240E+03  4.651E-01  1.200E+01  7.800E-02  1.155E+00
   1    5    6     2     2    4.9625E+00  2.0712E-01   4.7554E+00  0.000E+00  0.000E+00  0.000E+00  1.06696E+03  4.519E-01  1.200E+01  6.000E-02  1.151E+00
   1    6    6     2     3    4.7554E+00  2.0642E-01   4.5490E+00  0.000E+00  0.000E+00  0.000E+00  1.06223E+03  4.403E-01  1.200E+01  6.000E-02  1.147E+00
   1    7    6     2     4    4.5490E+00  2.0571E-01   4.3433E+00  0.000E+00  0.000E+00  0.000E+00  1.05750E+03  4.285E-01  1.200E+01  6.000E-02  1.143E+00
   1    8    6     2     5    4.3433E+00  2.0499E-01   4.1383E+00  0.000E+00  0.000E+00  0.000E+00  1.05278E+03  4.165E-01  1.200E+01  6.000E-02  1.139E+00
   1    3    5     3     1    2.0000E+00  2.8252E-01   1.7175E+00  0.000E+00  0.000E+00  0.000E+00  1.07555E+03  1.909E+00  9.636E+00  7.227E-02  1.955E+00
   1    3    6     3     2    1.7175E+00  2.4905E-01   1.4684E+00  0.000E+00  0.000E+00  0.000E+00  1.07264E+03  1.727E+00  8.909E+00  6.682E-02  1.864E+00
   1    3    7     3     3    1.4684E+00  1.9718E-01   1.2712E+00  0.000E+00  0.000E+00  0.000E+00  1.06987E+03  1.555E+00  8.218E+00  5.547E-02  1.777E+00
   1    4    8     3     4    1.2712E+00  2.2567E-01   1.0456E+00  0.000E+00  0.000E+00  0.000E+00  1.06682E+03  1.364E+00  7.455E+00  6.709E-02  1.682E+00
   1    5    8     3     5    1.0456E+00  1.5790E-01   8.8768E-01  0.000E+00  0.000E+00  0.000E+00  1.06362E+03  1.164E+00  6.655E+00  4.991E-02  1.582E+00
   1    6    8     3     6    8.8768E-01  5.5980E-02   8.3170E-01  0.000E+00  0.000E+00  0.000E+00  1.06158E+03  1.036E+00  6.145E+00  1.844E-02  1.518E+00
   1    5   10     4     1    1.0000E+01  9.0919E-02   9.9091E+00  0.000E+00  0.000E+00  0.000E+00  1.07836E+03  6.368E-01  1.000E+01  2.500E-02  1.212E+00
   1    5    9     4     2    9.9091E+00  1.8158E-01   9.7275E+00  0.000E+00  0.000E+00  0.000E+00  1.07154E+03  6.315E-01  1.000E+01  5.000E-02  1.211E+00
   1    6    8     4     3    9.7275E+00  1.2689E-01   9.6006E+00  0.000E+00  0.000E+00  0.000E+00  1.06381E+03  6.256E-01  1.000E+01  3.500E-02  1.209E+00
   1    6    8     5     1    1.0432E+01  2.2686E-01   1.0205E+01  0.000E+00  0.000E+00  0.000E+00  1.05868E+03  6.790E-01  1.542E+01  6.166E-02  1.226E+00
   1    7    7     5     2    1.0205E+01  2.7894E-01   9.9265E+00  0.000E+00  0.000E+00  0.000E+00  1.05417E+03  6.732E-01  1.519E+01  7.594E-02  1.224E+00
   1    8    7     5     3    9.9265E+00  1.9221E-01   9.7343E+00  0.000E+00  0.000E+00  0.000E+00  1.04992E+03  6.676E-01  1.497E+01  5.241E-02  1.223E+00
   1    8    6     5     4    9.7343E+00  1.3577E-01   9.5985E+00  0.000E+00  0.000E+00  0.000E+00  1.04691E+03  6.637E-01  1.482E+01  3.706E-02  1.221E+00
   1    9    6     6     1    1.3737E+01  2.3089E-01   1.3506E+01  0.000E+00  0.000E+00  0.000E+00  1.04358E+03  8.482E-01  1.200E+01  6.000E-02  1.283E+00
   1   10    7     6     2    1.3506E+01  2.3037E-01   1.3276E+01  0.000E+00  0.000E+00  0.000E+00  1.03902E+03  8.396E-01  1.200E+01  6.000E-02  1.280E+00
   1   11    7     6     3    1.3276E+01  2.2985E-01   1.3046E+01  0.000E+00  0.000E+00  0.000E+00  1.03447E+03  8.309E-01  1.200E+01  6.000E-02  1.277E+00
   1   12    7     6     4    1.3046E+01  2.2933E-01   1.2816E+01  0.000E+00  0.000E+00  0.000E+00  1.02991E+03  8.221E-01  1.200E+01  6.000E-02  1.274E+00
   1   13    7     6     5    1.2816E+01  5.4717E-03   1.2811E+01  0.000E+00  0.000E+00  0.000E+00  1.02673E+03  8.177E-01  1.200E+01  2.400E-02  7.600E-02
   1   14    9     7     1    1.5000E+02  1.3878E+00   1.4861E+02  0.000E+00  0.000E+00  0.000E+00  1.03987E+03  2.288E+00  5.529E+01  5.593E-01  8.271E-01
   1   13    8     7     2    1.4861E+02  2.0136E+00   1.4660E+02  0.000E+00  0.000E+00  0.000E+00  1.03478E+03  2.279E+00  5.525E+01  6.147E-01  1.092E+00
   1   13    7     7     3    1.4660E+02  1.7806E+00   1.4482E+02  0.000E+00  0.000E+00  0.000E+00  1.02969E+03  2.268E+00  5.521E+01  5.583E-01  1.063E+00
   1   13    6     8     1    1.5763E+02  1.1573E+00   1.5647E+02  0.000E+00  0.000E+00  0.000E+00  1.02474E+03  2.866E+00  4.155E+01  4.234E-01  9.110E-01
   1   13    5     8     2    1.5647E+02  4.0427E-01   1.5607E+02  0.000E+00  0.000E+00  0.000E+00  1.01849E+03  2.860E+00  4.148E+01  4.227E-01  3.188E-01
   1   13    4     8     3    1.5607E+02 -1.6463E+00   1.5771E+02  0.000E+00  0.000E+00  0.000E+00  1.01224E+03  2.865E+00  4.154E+01  4.233E+00 -1.296E-01
   1   13    3     8     4    1.5771E+02 -3.2564E+00   1.6097E+02  0.000E+00  0.000E+00  0.000E+00  1.00601E+03  2.881E+00  4.178E+01  4.258E+00 -2.550E-01
   1   13    2     8     5    1.6097E+02 -2.4838E+00   1.6345E+02  0.000E+00  0.000E+00  0.000E+00  9.99776E+02  2.901E+00  4.206E+01  4.286E+00 -1.932E-01
   1   13    1     8     6    1.6345E+02 -1.9563E+00   1.6541E+02  0.000E+00  0.000E+00  0.000E+00  9.94791E+02  2.916E+00  4.228E+01  2.585E+00 -2.523E-01
   1    8    6     9     1    0.0000E+00  0.0000E+00   0.0000E+00  0.000E+00  0.000E+00  0.000E+00  1.07875E+03  0.000E+00  4.000E+00  0.000E+00  1.000E+00
   1    8    5     9     2    0.0000E+00  0.0000E+00   0.0000E+00  0.000E+00  0.000E+00  0.000E+00  1.07825E+03  0.000E+00  4.000E+00  0.000E+00  1.000E+00





UNSATURATED ZONE PACKAGE VOLUMETRIC BUDGET FOR  TIME STEP    30 STRESS PERIOD   24
  ------------------------------------------------------------------------------



     CUMULATIVE VOLUMES      L**3       RATES FOR THIS TIME STEP      L**3/T
     ------------------                 ------------------------

           IN:                                      IN:
           ---                                      ---
        INFILTRATION =  4258001173.8508          INFILTRATION =           0.8475

          OUT:                                     OUT:
          ----                                     ----
              UZF ET =   860909281.1620                UZF ET =           0.7500
        UZF RECHARGE =  3020037842.5488          UZF RECHARGE =       0.0000E+00

            IN - OUT =   377054050.1400              IN - OUT =       9.7500E-02

          STORAGE:                                 STORAGE:
          --------                                 --------
      STORAGE CHANGE =   377099929.9992        STORAGE CHANGE =       9.7500E-02

 PERCENT DISCREPANCY IS DIFFERENCE BETWEEN IN-OUT MINUS CHANGE IN STORAGE
 DIVIDED BY THE AVERAGE OF IN AND OUT TIMES 100

 PERCENT DISCREPANCY =          -0.00     PERCENT DISCREPANCY =           0.00






1
  VOLUMETRIC BUDGET FOR AGRICULTURAL FIELDS AT  END OF TIME STEP   30, STRESS PERIOD  24
  ------------------------------------------------------------------------------

     CUMULATIVE VOLUMES      L**3       RATES FOR THIS TIME STEP      L**3/T
     ------------------                 ------------------------

           IN:                                      IN:
           ---                                      ---
               AG WELLS  =  3700675072.0000                 AG WELLS  =           0.0000
      DIVERSION SEGMENTS =   505989536.0000        DIVERSION SEGMENTS =           0.0000
           GW IRRIGATION =           0.0000             GW IRRIGATION =           0.0000
           SW IRRIGATION =           0.0000             SW IRRIGATION =           0.0000
        SYSTEM LOSSES GW =           0.0000          SYSTEM LOSSES GW =           0.0000
        SYSTEM LOSSES SW =           0.0000          SYSTEM LOSSES SW =           0.0000

                TOTAL IN =  4206664704.0000                  TOTAL IN =           0.0000

          OUT:                                     OUT:
          ----                                     ----
               AG WELLS  =           0.0000                 AG WELLS  =           0.0000
      DIVERSION SEGMENTS =           0.0000        DIVERSION SEGMENTS =           0.0000
           GW IRRIGATION =  3700675072.0000             GW IRRIGATION =           0.0000
           SW IRRIGATION =   505998912.0000             SW IRRIGATION =           0.0000
        SYSTEM LOSSES GW =           0.0000          SYSTEM LOSSES GW =           0.0000
        SYSTEM LOSSES SW =           0.0000          SYSTEM LOSSES SW =           0.0000

               TOTAL OUT =  4206673920.0000                 TOTAL OUT =           0.0000

                IN - OUT =       -9216.0000                  IN - OUT =           0.0000

     PERCENT DISCREPANCY =          -0.00         PERCENT DISCREPANCY =           0.00



1
  VOLUMETRIC BUDGET FOR ENTIRE MODEL AT END OF TIME STEP   30, STRESS PERIOD  24
  ------------------------------------------------------------------------------

     CUMULATIVE VOLUMES      L**3       RATES FOR THIS TIME STEP      L**3/T
     ------------------                 ------------------------

           IN:                                      IN:
           ---                                      ---
             STORAGE     =  3638581760.0000               STORAGE     =           6.6872
       CONSTANT HEAD     =           0.0000         CONSTANT HEAD     =           0.0000
     HEAD DEP BOUNDS     =    17462740.0000       HEAD DEP BOUNDS     =           0.2893
      STREAM LEAKAGE     =   720076608.0000        STREAM LEAKAGE     =          11.8078
        UZF RECHARGE     =  3020038656.0000          UZF RECHARGE     =           0.0000
               GW ET     =           0.0000                 GW ET     =           0.0000
     SURFACE LEAKAGE     =           0.0000       SURFACE LEAKAGE     =           0.0000
           AG WELLS      =           0.0000             AG WELLS      =           0.0000

                TOTAL IN =  7396160000.0000                  TOTAL IN =          18.7843

          OUT:                                     OUT:
          ----                                     ----
             STORAGE     =  3077739264.0000               STORAGE     =           9.1547
       CONSTANT HEAD     =           0.0000         CONSTANT HEAD     =           0.0000
     HEAD DEP BOUNDS     =    17407592.0000       HEAD DEP BOUNDS     =           0.2868
      STREAM LEAKAGE     =   600267328.0000        STREAM LEAKAGE     =           9.3428
        UZF RECHARGE     =           0.0000          UZF RECHARGE     =           0.0000
               GW ET     =           0.0000                 GW ET     =           0.0000
     SURFACE LEAKAGE     =           0.0000       SURFACE LEAKAGE     =           0.0000
           AG WELLS      =  3700675072.0000             AG WELLS      =           0.0000

               TOTAL OUT =  7396088832.0000                 TOTAL OUT =          18.7843

                IN - OUT =       71168.0000                  IN - OUT =       1.3351E-05

     PERCENT DISCREPANCY =           0.00         PERCENT DISCREPANCY =           0.00






         TIME SUMMARY AT END OF TIME STEP   30 IN STRESS PERIOD   24
                    SECONDS     MINUTES      HOURS       DAYS        YEARS
                    -----------------------------------------------------------
   TIME STEP LENGTH  87667.      1461.1      24.352      1.0147     2.77799E-03
 STRESS PERIOD TIME 2.63000E+06  43833.      730.56      30.440     8.33397E-02
         TOTAL TIME 6.05767E+07 1.00961E+06  16827.      701.12      1.9196    
1
1
                            STRESS PERIOD NO.   25, LENGTH =   2630000.    
                            -----------------------------------------------

                              NUMBER OF TIME STEPS =    30

                               MULTIPLIER FOR DELT =     1.000

                            INITIAL TIME STEP SIZE =   87666.66    

 REUSING NON-PARAMETER GHB CELLS FROM LAST STRESS PERIOD

      2 GHB CELLS

 REUSING STREAM SEGMENT DATA FROM LAST STRESS PERIOD



            AREAL INFILTRATION RATE
 READING ON UNIT   19 WITH FORMAT: (FREE)              

            1           2           3           4           5           6           7           8           9          10
 ........................................................................................................................
   1   1.0000E-10  2.0000E-10   0.000       0.000       0.000       0.000       0.000       0.000       0.000       0.000    
   2   2.0000E-10  1.0000E-10  2.0000E-10   0.000       0.000      8.0000E-10  8.0000E-10  5.0000E-10   0.000       0.000    
   3    0.000      5.0000E-10  1.0000E-10  1.0000E-10  8.0000E-10  8.0000E-10  5.0000E-10  5.0000E-10   0.000       0.000    
   4   8.0000E-10  5.0000E-10  1.0000E-10  1.0000E-10  1.0000E-10  1.0000E-10  1.0000E-10  1.0000E-10  2.0000E-10   0.000    
   5   8.0000E-10  5.0000E-10  1.0000E-10  1.0000E-10  1.0000E-10  1.0000E-10  1.0000E-10  1.0000E-10  1.0000E-10  1.0000E-10
   6   8.0000E-10  5.0000E-10  5.0000E-10  2.0000E-10  2.0000E-10  1.0000E-10  1.0000E-10  1.0000E-10  1.0000E-10  5.0000E-10
   7   8.0000E-10  5.0000E-10  5.0000E-10  2.0000E-10  2.0000E-10  1.0000E-10  1.0000E-10  2.0000E-10  2.0000E-10   0.000    
   8    0.000      5.0000E-10  5.0000E-10  2.0000E-10  2.0000E-10  1.0000E-10  1.0000E-10  2.0000E-10  5.0000E-10   0.000    
   9    0.000      5.0000E-10  5.0000E-10  2.0000E-10  2.0000E-10  1.0000E-10  1.0000E-10  2.0000E-10  5.0000E-10   0.000    
  10    0.000      5.0000E-10  5.0000E-10  2.0000E-10  2.0000E-10  1.0000E-10  1.0000E-10  2.0000E-10  5.0000E-10  8.0000E-10
  11    0.000      1.0000E-10  1.0000E-10  1.0000E-10  1.0000E-10  1.0000E-10  1.0000E-10  2.0000E-10  5.0000E-10   0.000    
  12   1.0000E-10  1.0000E-10  1.0000E-10  1.0000E-10  1.0000E-10  1.0000E-10  1.0000E-10  1.0000E-10  2.0000E-10   0.000    
  13   1.0000E-10  1.0000E-10  2.0000E-10  2.0000E-10  2.0000E-10  2.0000E-10  2.0000E-10  1.0000E-10  1.0000E-10   0.000    
  14    0.000      2.0000E-10  5.0000E-10  5.0000E-10  5.0000E-10  5.0000E-10  5.0000E-10  2.0000E-10  1.0000E-10   0.000    
  15    0.000       0.000      8.0000E-10  8.0000E-10  8.0000E-10  8.0000E-10   0.000       0.000       0.000       0.000    

                  ET RATE =  5.000000E-10

 USING ET EXTINCTION DEPTH FROM PREVIOUS STRESS PERIOD. CURRENT PERIOD IS:      25

 USING EXTINCTION WATER CONTENT FROM PREVIOUS STRESS PERIOD. CURRENT PERIOD IS:      25

 USING AIR ENTRY PRESSURE FROM PREVIOUS STRESS PERIOD. CURRENT PERIOD IS:      25

 USING ROOT PRESSURE HEAD FROM PREVIOUS STRESS PERIOD. CURRENT PERIOD IS:      25

 USING ROOT ACTIVITY FROM PREVIOUS STRESS PERIOD. CURRENT PERIOD IS:      25

 PROCESSING AG STRESS PERIOD DATA

 READING AG STRESS PERIOD DATA

 READING IRRIGATION SEGMENT

 READING IRRIGATION WELL

 READING SUPPLEMENTAL WELL

 END PROCESSING AG STRESS PERIOD DATA OPTIONS
 
 SOLVING FOR HEAD 
                                                   Max.-Head-Change                         Max.-Flux-Residual
  Residual-Control   Outer-Iter.   Inner-Iter.     Column Row Layer    Maximum-Head-Change  Column Row Layer    Maximum-Flux-Residual          L2-NORM 
          0                 1           2             4    6     1      -0.3216402933E-01       4    6    1        -0.1742238171E+01      0.2849544098E+01
          0                 2           2             4    6     1       0.3128592785E-02       4    6    1         0.1742176012E+00      0.2849490675E+00
          0                 3           2             4    6     1      -0.2130464519E-03       4    6    1        -0.1219529615E-01      0.1994645481E-01
          0                 4           1             4    6     1       0.8477313669E-05       4    6    1         0.4987880279E-03      0.8158106250E-03

    ------------------------------------------------
       NWT REQUIRED            4 OUTER ITERATIONS 
       AND A TOTAL OF          7 INNER ITERATIONS.
    ------------------------------------------------

 NO OUTPUT CONTROL FOR STRESS PERIOD   25   TIME STEP    1
 
 SOLVING FOR HEAD 
                                                   Max.-Head-Change                         Max.-Flux-Residual
  Residual-Control   Outer-Iter.   Inner-Iter.     Column Row Layer    Maximum-Head-Change  Column Row Layer    Maximum-Flux-Residual          L2-NORM 
          0                 1           2             4    6     1      -0.3086443305E-01       4    6    1        -0.1671218079E+01      0.2764741090E+01
          0                 2           2             4    6     1       0.3002185345E-02       4    6    1         0.1671161335E+00      0.2764690811E+00
          0                 3           2             4    6     1      -0.2044384976E-03       4    6    1        -0.1169818810E-01      0.1935283989E-01
          0                 4           1             4    6     1       0.8134795588E-05       4    6    1         0.4784563005E-03      0.7915287604E-03

    ------------------------------------------------
       NWT REQUIRED            4 OUTER ITERATIONS 
       AND A TOTAL OF          7 INNER ITERATIONS.
    ------------------------------------------------

 NO OUTPUT CONTROL FOR STRESS PERIOD   25   TIME STEP    2
 
 SOLVING FOR HEAD 
                                                   Max.-Head-Change                         Max.-Flux-Residual
  Residual-Control   Outer-Iter.   Inner-Iter.     Column Row Layer    Maximum-Head-Change  Column Row Layer    Maximum-Flux-Residual          L2-NORM 
          0                 1           2             4    6     1      -0.2962814849E-01       4    6    1        -0.1603686849E+01      0.2684243782E+01
          0                 2           2             4    6     1       0.2881938272E-02       4    6    1         0.1603635008E+00      0.2685709104E+00
          0                 3           2             4    6     1      -0.1962500480E-03       4    6    1        -0.1122549894E-01      0.1879984429E-01
          0                 4           1             4    6     1       0.7808969858E-05       4    6    1         0.4591233196E-03      0.7689203685E-03

    ------------------------------------------------
       NWT REQUIRED            4 OUTER ITERATIONS 
       AND A TOTAL OF          7 INNER ITERATIONS.
    ------------------------------------------------

 NO OUTPUT CONTROL FOR STRESS PERIOD   25   TIME STEP    3
 
 SOLVING FOR HEAD 
                                                   Max.-Head-Change                         Max.-Flux-Residual
  Residual-Control   Outer-Iter.   Inner-Iter.     Column Row Layer    Maximum-Head-Change  Column Row Layer    Maximum-Flux-Residual          L2-NORM 
          0                 1           2             4    6     1      -0.2845184000E-01       4    6    1        -0.1539460326E+01      0.2607513943E+01
          0                 2           2             4    6     1       0.2767519359E-02       4    6    1         0.1539412927E+00      0.2607766859E+00
          0                 3           2             4    6     1      -0.1884584817E-03       4    6    1        -0.1077594000E-01      0.1825436922E-01
          0                 4           1             4    6     1       0.7498936526E-05       4    6    1         0.4407363510E-03      0.7466062891E-03

    ------------------------------------------------
       NWT REQUIRED            4 OUTER ITERATIONS 
       AND A TOTAL OF          7 INNER ITERATIONS.
    ------------------------------------------------

 NO OUTPUT CONTROL FOR STRESS PERIOD   25   TIME STEP    4
 
 SOLVING FOR HEAD 
                                                   Max.-Head-Change                         Max.-Flux-Residual
  Residual-Control   Outer-Iter.   Inner-Iter.     Column Row Layer    Maximum-Head-Change  Column Row Layer    Maximum-Flux-Residual          L2-NORM 
          0                 1           2             4    6     1      -0.2733187554E-01       4    6    1        -0.1478336489E+01      0.2534342656E+01
          0                 2           2             4    6     1       0.2658583183E-02       4    6    1         0.1478293117E+00      0.2534494454E+00
          0                 3           2             4    6     1      -0.1810402748E-03       4    6    1        -0.1034809733E-01      0.1774145983E-01
          0                 4           1             4    6     1       0.7203759605E-05       4    6    1         0.4232375798E-03      0.7256257505E-03

    ------------------------------------------------
       NWT REQUIRED            4 OUTER ITERATIONS 
       AND A TOTAL OF          7 INNER ITERATIONS.
    ------------------------------------------------

 NO OUTPUT CONTROL FOR STRESS PERIOD   25   TIME STEP    5
 
 SOLVING FOR HEAD 
                                                   Max.-Head-Change                         Max.-Flux-Residual
  Residual-Control   Outer-Iter.   Inner-Iter.     Column Row Layer    Maximum-Head-Change  Column Row Layer    Maximum-Flux-Residual          L2-NORM 
          0                 1           2             4    6     1      -0.2626511051E-01       4    6    1        -0.1420141338E+01      0.2464562131E+01
          0                 2           2             4    6     1       0.2554821334E-02       4    6    1         0.1420101619E+00      0.2464527393E+00
          0                 3           2             4    6     1      -0.1739744257E-03       4    6    1        -0.9940753209E-02      0.1725169093E-01
          0                 4           1             4    6     1       0.6922603269E-05       4    6    1         0.4065771964E-03      0.7055959719E-03

    ------------------------------------------------
       NWT REQUIRED            4 OUTER ITERATIONS 
       AND A TOTAL OF          7 INNER ITERATIONS.
    ------------------------------------------------

 NO OUTPUT CONTROL FOR STRESS PERIOD   25   TIME STEP    6
 
 SOLVING FOR HEAD 
                                                   Max.-Head-Change                         Max.-Flux-Residual
  Residual-Control   Outer-Iter.   Inner-Iter.     Column Row Layer    Maximum-Head-Change  Column Row Layer    Maximum-Flux-Residual          L2-NORM 
          0                 1           2             4    6     1      -0.2524860280E-01       4    6    1        -0.1364711958E+01      0.2397952848E+01
          0                 2           2             4    6     1       0.2455947661E-02       4    6    1         0.1364675558E+00      0.2397921032E+00
          0                 3           2             4    6     1      -0.1672414481E-03       4    6    1        -0.9552767479E-02      0.1678543612E-01
          0                 4           1             4    6     1       0.6654692132E-05       4    6    1         0.3907085693E-03      0.6865214308E-03

    ------------------------------------------------
       NWT REQUIRED            4 OUTER ITERATIONS 
       AND A TOTAL OF          7 INNER ITERATIONS.
    ------------------------------------------------

 NO OUTPUT CONTROL FOR STRESS PERIOD   25   TIME STEP    7
 
 SOLVING FOR HEAD 
                                                   Max.-Head-Change                         Max.-Flux-Residual
  Residual-Control   Outer-Iter.   Inner-Iter.     Column Row Layer    Maximum-Head-Change  Column Row Layer    Maximum-Flux-Residual          L2-NORM 
          0                 1           2             4    6     1      -0.2427960319E-01       4    6    1        -0.1311895801E+01      0.2334363235E+01
          0                 2           2             4    6     1       0.2361507187E-02       4    6    1         0.1311862416E+00      0.2330632781E+00
          0                 3           2             4    6     1      -0.1608103589E-03       4    6    1        -0.9183072514E-02      0.1631443244E-01
          0                 4           1             4    6     1       0.6398793640E-05       4    6    1         0.3755880482E-03      0.6672637065E-03

    ------------------------------------------------
       NWT REQUIRED            4 OUTER ITERATIONS 
       AND A TOTAL OF          7 INNER ITERATIONS.
    ------------------------------------------------

 NO OUTPUT CONTROL FOR STRESS PERIOD   25   TIME STEP    8
 
 SOLVING FOR HEAD 
                                                   Max.-Head-Change                         Max.-Flux-Residual
  Residual-Control   Outer-Iter.   Inner-Iter.     Column Row Layer    Maximum-Head-Change  Column Row Layer    Maximum-Flux-Residual          L2-NORM 
          0                 1           2             4    6     1      -0.2335627528E-01       4    6    1        -0.1261560313E+01      0.2273911589E+01
          0                 2           2             4    6     1       0.2271884273E-02       4    6    1         0.1261529687E+00      0.2273887225E+00
          0                 3           2             4    6     1      -0.1547073310E-03       4    6    1        -0.8830740605E-02      0.1591721728E-01
          0                 4           1             4    6     1       0.6155948546E-05       4    6    1         0.3611776606E-03      0.6510150270E-03

    ------------------------------------------------
       NWT REQUIRED            4 OUTER ITERATIONS 
       AND A TOTAL OF          7 INNER ITERATIONS.
    ------------------------------------------------

 NO OUTPUT CONTROL FOR STRESS PERIOD   25   TIME STEP    9
 
 SOLVING FOR HEAD 
                                                   Max.-Head-Change                         Max.-Flux-Residual
  Residual-Control   Outer-Iter.   Inner-Iter.     Column Row Layer    Maximum-Head-Change  Column Row Layer    Maximum-Flux-Residual          L2-NORM 
          0                 1           2             4    6     1      -0.2247529410E-01       4    6    1        -0.1213565535E+01      0.2216382907E+01
          0                 2           2             4    6     1       0.2186192449E-02       4    6    1         0.1213537413E+00      0.2216360473E+00
          0                 3           2             4    6     1      -0.1488720000E-03       4    6    1        -0.8494792172E-02      0.1551451691E-01
          0                 4           1             4    6     1       0.5923755402E-05       4    6    1         0.3474373532E-03      0.6345489846E-03

    ------------------------------------------------
       NWT REQUIRED            4 OUTER ITERATIONS 
       AND A TOTAL OF          7 INNER ITERATIONS.
    ------------------------------------------------

 NO OUTPUT CONTROL FOR STRESS PERIOD   25   TIME STEP   10
 
 SOLVING FOR HEAD 
                                                   Max.-Head-Change                         Max.-Flux-Residual
  Residual-Control   Outer-Iter.   Inner-Iter.     Column Row Layer    Maximum-Head-Change  Column Row Layer    Maximum-Flux-Residual          L2-NORM 
          0                 1           2             4    6     1      -0.2163482441E-01       4    6    1        -0.1167798548E+01      0.2161319983E+01
          0                 2           2             4    6     1       0.2104440963E-02       4    6    1         0.1167772704E+00      0.2161299377E+00
          0                 3           2             4    6     1      -0.1433049946E-03       4    6    1        -0.8174436909E-02      0.1512908935E-01
          0                 4           1             4    6     1       0.5702239307E-05       4    6    1         0.3343348264E-03      0.6187785773E-03

    ------------------------------------------------
       NWT REQUIRED            4 OUTER ITERATIONS 
       AND A TOTAL OF          7 INNER ITERATIONS.
    ------------------------------------------------

 NO OUTPUT CONTROL FOR STRESS PERIOD   25   TIME STEP   11
 
 SOLVING FOR HEAD 
                                                   Max.-Head-Change                         Max.-Flux-Residual
  Residual-Control   Outer-Iter.   Inner-Iter.     Column Row Layer    Maximum-Head-Change  Column Row Layer    Maximum-Flux-Residual          L2-NORM 
          0                 1           2             4    6     1      -0.2083243147E-01       4    6    1        -0.1124124717E+01      0.2108572370E+01
          0                 2           2             4    6     1       0.2026393015E-02       4    6    1         0.1124100950E+00      0.2108553398E+00
          0                 3           2             4    6     1      -0.1379901897E-03       4    6    1        -0.7868732548E-02      0.1475986528E-01
          0                 4           1             4    6     1       0.5490758885E-05       4    6    1         0.3218315151E-03      0.6036738538E-03

    ------------------------------------------------
       NWT REQUIRED            4 OUTER ITERATIONS 
       AND A TOTAL OF          7 INNER ITERATIONS.
    ------------------------------------------------

 NO OUTPUT CONTROL FOR STRESS PERIOD   25   TIME STEP   12
 
 SOLVING FOR HEAD 
                                                   Max.-Head-Change                         Max.-Flux-Residual
  Residual-Control   Outer-Iter.   Inner-Iter.     Column Row Layer    Maximum-Head-Change  Column Row Layer    Maximum-Flux-Residual          L2-NORM 
          0                 1           2             4    6     1      -0.2006623803E-01       4    6    1        -0.1082439901E+01      0.2058017268E+01
          0                 2           2             4    6     1       0.1951866025E-02       4    6    1         0.1082418026E+00      0.2057999942E+00
          0                 3           2             4    6     1      -0.1329151510E-03       4    6    1        -0.7576950161E-02      0.1440599406E-01
          0                 4           1             4    6     1       0.5288818397E-05       4    6    1         0.3098976010E-03      0.5892062606E-03

    ------------------------------------------------
       NWT REQUIRED            4 OUTER ITERATIONS 
       AND A TOTAL OF          7 INNER ITERATIONS.
    ------------------------------------------------

 NO OUTPUT CONTROL FOR STRESS PERIOD   25   TIME STEP   13
 
 SOLVING FOR HEAD 
                                                   Max.-Head-Change                         Max.-Flux-Residual
  Residual-Control   Outer-Iter.   Inner-Iter.     Column Row Layer    Maximum-Head-Change  Column Row Layer    Maximum-Flux-Residual          L2-NORM 
          0                 1           2             4    6     1      -0.1933408441E-01       4    6    1        -0.1042624664E+01      0.2009516904E+01
          0                 2           2             4    6     1       0.1880649942E-02       4    6    1         0.1042604516E+00      0.2009500880E+00
          0                 3           2             4    6     1      -0.1280655752E-03       4    6    1        -0.7298253820E-02      0.1406650190E-01
          0                 4           1             4    6     1       0.5095849687E-05       4    6    1         0.2984989180E-03      0.5753215978E-03

    ------------------------------------------------
       NWT REQUIRED            4 OUTER ITERATIONS 
       AND A TOTAL OF          7 INNER ITERATIONS.
    ------------------------------------------------

 NO OUTPUT CONTROL FOR STRESS PERIOD   25   TIME STEP   14
 
 SOLVING FOR HEAD 
                                                   Max.-Head-Change                         Max.-Flux-Residual
  Residual-Control   Outer-Iter.   Inner-Iter.     Column Row Layer    Maximum-Head-Change  Column Row Layer    Maximum-Flux-Residual          L2-NORM 
          0                 1           2             4    6     1      -0.1863421338E-01       4    6    1        -0.1004581756E+01      0.1962969052E+01
          0                 2           2             4    6     1       0.1812573859E-02       4    6    1         0.1004563186E+00      0.1962954248E+00
          0                 3           2             4    6     1      -0.1234298240E-03       4    6    1        -0.7031962910E-02      0.1374067652E-01
          0                 4           1             4    6     1       0.4911388792E-05       4    6    1         0.2876076023E-03      0.5619937464E-03

    ------------------------------------------------
       NWT REQUIRED            4 OUTER ITERATIONS 
       AND A TOTAL OF          7 INNER ITERATIONS.
    ------------------------------------------------

 NO OUTPUT CONTROL FOR STRESS PERIOD   25   TIME STEP   15
 
 SOLVING FOR HEAD 
                                                   Max.-Head-Change                         Max.-Flux-Residual
  Residual-Control   Outer-Iter.   Inner-Iter.     Column Row Layer    Maximum-Head-Change  Column Row Layer    Maximum-Flux-Residual          L2-NORM 
          0                 1           2             4    6     1      -0.1796484174E-01       4    6    1        -0.9682127008E+00      0.1918266922E+01
          0                 2           2             4    6     1       0.1747464339E-02       4    6    1         0.9681955718E-01      0.1918253192E+00
          0                 3           2             4    6     1      -0.1189960865E-03       4    6    1        -0.6777388129E-02      0.1342775956E-01
          0                 4           1             4    6     1       0.4734966451E-05       4    6    1         0.2771954894E-03      0.5491944605E-03

    ------------------------------------------------
       NWT REQUIRED            4 OUTER ITERATIONS 
       AND A TOTAL OF          7 INNER ITERATIONS.
    ------------------------------------------------

 NO OUTPUT CONTROL FOR STRESS PERIOD   25   TIME STEP   16
 
 SOLVING FOR HEAD 
                                                   Max.-Head-Change                         Max.-Flux-Residual
  Residual-Control   Outer-Iter.   Inner-Iter.     Column Row Layer    Maximum-Head-Change  Column Row Layer    Maximum-Flux-Residual          L2-NORM 
          0                 1           2             4    6     1      -0.1732456477E-01       4    6    1        -0.9334397673E+00      0.1875306297E+01
          0                 2           2             4    6     1       0.1685192777E-02       4    6    1         0.9334298429E-01      0.1875297270E+00
          0                 3           2             4    6     1      -0.1147554774E-03       4    6    1        -0.6534018077E-02      0.1312706917E-01
          0                 4           1             4    6     1       0.4566229453E-05       4    6    1         0.2672416861E-03      0.5368961352E-03

    ------------------------------------------------
       NWT REQUIRED            4 OUTER ITERATIONS 
       AND A TOTAL OF          7 INNER ITERATIONS.
    ------------------------------------------------

 NO OUTPUT CONTROL FOR STRESS PERIOD   25   TIME STEP   17
 
 SOLVING FOR HEAD 
                                                   Max.-Head-Change                         Max.-Flux-Residual
  Residual-Control   Outer-Iter.   Inner-Iter.     Column Row Layer    Maximum-Head-Change  Column Row Layer    Maximum-Flux-Residual          L2-NORM 
          0                 1           2             4    6     1      -0.1671164101E-01       4    6    1        -0.9001675910E+00      0.1834007133E+01
          0                 2           2             4    6     1       0.1625577804E-02       4    6    1         0.9001613655E-01      0.1834000525E+00
          0                 3           2             4    6     1      -0.1106959119E-03       4    6    1        -0.6301138176E-02      0.1283799235E-01
          0                 4           1             4    6     1       0.4404695875E-05       4    6    1         0.2577168996E-03      0.5250727580E-03

    ------------------------------------------------
       NWT REQUIRED            4 OUTER ITERATIONS 
       AND A TOTAL OF          7 INNER ITERATIONS.
    ------------------------------------------------

 NO OUTPUT CONTROL FOR STRESS PERIOD   25   TIME STEP   18
 
 SOLVING FOR HEAD 
                                                   Max.-Head-Change                         Max.-Flux-Residual
  Residual-Control   Outer-Iter.   Inner-Iter.     Column Row Layer    Maximum-Head-Change  Column Row Layer    Maximum-Flux-Residual          L2-NORM 
          0                 1           2             4    6     1      -0.1612472831E-01       4    6    1        -0.8683212599E+00      0.1794271573E+01
          0                 2           2             4    6     1       0.1568487850E-02       4    6    1         0.8683154823E-01      0.1794300396E+00
          0                 3           2             4    6     1      -0.1068082843E-03       4    6    1        -0.6078216479E-02      0.1256006676E-01
          0                 4           1             4    6     1       0.4249996731E-05       4    6    1         0.2485993830E-03      0.5139356423E-03

    ------------------------------------------------
       NWT REQUIRED            4 OUTER ITERATIONS 
       AND A TOTAL OF          7 INNER ITERATIONS.
    ------------------------------------------------

 NO OUTPUT CONTROL FOR STRESS PERIOD   25   TIME STEP   19
 
 SOLVING FOR HEAD 
                                                   Max.-Head-Change                         Max.-Flux-Residual
  Residual-Control   Outer-Iter.   Inner-Iter.     Column Row Layer    Maximum-Head-Change  Column Row Layer    Maximum-Flux-Residual          L2-NORM 
          0                 1           2             4    6     1      -0.1556244562E-01       4    6    1        -0.8378238656E+00      0.1756027179E+01
          0                 2           2             4    6     1       0.1513793688E-02       4    6    1         0.8378185007E-01      0.1756021301E+00
          0                 3           1             4    6     1      -0.1030838724E-03       4    6    1        -0.5864737108E-02      0.1229215035E-01
          0                 4           1             4    6     1       0.4101861126E-05       4    6    1         0.2398714971E-03      0.5027859775E-03

    ------------------------------------------------
       NWT REQUIRED            4 OUTER ITERATIONS 
       AND A TOTAL OF          6 INNER ITERATIONS.
    ------------------------------------------------

 NO OUTPUT CONTROL FOR STRESS PERIOD   25   TIME STEP   20
 
 SOLVING FOR HEAD 
                                                   Max.-Head-Change                         Max.-Flux-Residual
  Residual-Control   Outer-Iter.   Inner-Iter.     Column Row Layer    Maximum-Head-Change  Column Row Layer    Maximum-Flux-Residual          L2-NORM 
          0                 1           2             4    6     1      -0.1502361854E-01       4    6    1        -0.8086108927E+00      0.1719166153E+01
          0                 2           2             4    6     1       0.1461380691E-02       4    6    1         0.8086059081E-01      0.1718741746E+00
          0                 3           1             4    6     1      -0.9951474011E-04       4    6    1        -0.5660248522E-02      0.1203118894E-01

    ------------------------------------------------
       NWT REQUIRED            3 OUTER ITERATIONS 
       AND A TOTAL OF          5 INNER ITERATIONS.
    ------------------------------------------------

 NO OUTPUT CONTROL FOR STRESS PERIOD   25   TIME STEP   21
 
 SOLVING FOR HEAD 
                                                   Max.-Head-Change                         Max.-Flux-Residual
  Residual-Control   Outer-Iter.   Inner-Iter.     Column Row Layer    Maximum-Head-Change  Column Row Layer    Maximum-Flux-Residual          L2-NORM 
          0                 1           2             4    6     1      -0.1450672611E-01       4    6    1        -0.7805981467E+00      0.1683658347E+01
          0                 2           2             4    6     1       0.1411102040E-02       4    6    1         0.7805935137E-01      0.1683653795E+00
          0                 3           1             4    6     1      -0.9609094669E-04       4    6    1        -0.5464161340E-02      0.1178557143E-01

    ------------------------------------------------
       NWT REQUIRED            3 OUTER ITERATIONS 
       AND A TOTAL OF          5 INNER ITERATIONS.
    ------------------------------------------------

 NO OUTPUT CONTROL FOR STRESS PERIOD   25   TIME STEP   22
 
 SOLVING FOR HEAD 
                                                   Max.-Head-Change                         Max.-Flux-Residual
  Residual-Control   Outer-Iter.   Inner-Iter.     Column Row Layer    Maximum-Head-Change  Column Row Layer    Maximum-Flux-Residual          L2-NORM 
          0                 1           2             4    6     1      -0.1401119636E-01       4    6    1        -0.7537537035E+00      0.1649681787E+01
          0                 2           2             4    6     1       0.1362900985E-02       4    6    1         0.7537493951E-01      0.1649677514E+00
          0                 3           1             4    6     1      -0.9280863017E-04       4    6    1        -0.5276252126E-02      0.1154773801E-01

    ------------------------------------------------
       NWT REQUIRED            3 OUTER ITERATIONS 
       AND A TOTAL OF          5 INNER ITERATIONS.
    ------------------------------------------------

 NO OUTPUT CONTROL FOR STRESS PERIOD   25   TIME STEP   23
 
 SOLVING FOR HEAD 
                                                   Max.-Head-Change                         Max.-Flux-Residual
  Residual-Control   Outer-Iter.   Inner-Iter.     Column Row Layer    Maximum-Head-Change  Column Row Layer    Maximum-Flux-Residual          L2-NORM 
          0                 1           2             4    6     1      -0.1353551742E-01       4    6    1        -0.7279948192E+00      0.1616899372E+01
          0                 2           2             4    6     1       0.1316630835E-02       4    6    1         0.7279908109E-01      0.1616895305E+00
          0                 3           1             4    6     1      -0.8965780139E-04       4    6    1        -0.5095941669E-02      0.1131826024E-01

    ------------------------------------------------
       NWT REQUIRED            3 OUTER ITERATIONS 
       AND A TOTAL OF          5 INNER ITERATIONS.
    ------------------------------------------------

 NO OUTPUT CONTROL FOR STRESS PERIOD   25   TIME STEP   24
 
 SOLVING FOR HEAD 
                                                   Max.-Head-Change                         Max.-Flux-Residual
  Residual-Control   Outer-Iter.   Inner-Iter.     Column Row Layer    Maximum-Head-Change  Column Row Layer    Maximum-Flux-Residual          L2-NORM 
          0                 1           2             4    6     1      -0.1307907824E-01       4    6    1        -0.7032872661E+00      0.1585276249E+01
          0                 2           2             4    6     1       0.1272232156E-02       4    6    1         0.7032835353E-01      0.1585272450E+00
          0                 3           1             4    6     1      -0.8663441312E-04       4    6    1        -0.4922990411E-02      0.1109690221E-01

    ------------------------------------------------
       NWT REQUIRED            3 OUTER ITERATIONS 
       AND A TOTAL OF          5 INNER ITERATIONS.
    ------------------------------------------------

 NO OUTPUT CONTROL FOR STRESS PERIOD   25   TIME STEP   25
 
 SOLVING FOR HEAD 
                                                   Max.-Head-Change                         Max.-Flux-Residual
  Residual-Control   Outer-Iter.   Inner-Iter.     Column Row Layer    Maximum-Head-Change  Column Row Layer    Maximum-Flux-Residual          L2-NORM 
          0                 1           2             4    6     1      -0.1264076456E-01       4    6    1        -0.6795699083E+00      0.1554755211E+01
          0                 2           2             4    6     1       0.1229596563E-02       4    6    1         0.6795664341E-01      0.1554751567E+00
          0                 3           1             4    6     1      -0.8373108482E-04       4    6    1        -0.4756970372E-02      0.1088325549E-01

    ------------------------------------------------
       NWT REQUIRED            3 OUTER ITERATIONS 
       AND A TOTAL OF          5 INNER ITERATIONS.
    ------------------------------------------------

 NO OUTPUT CONTROL FOR STRESS PERIOD   25   TIME STEP   26
 
 SOLVING FOR HEAD 
                                                   Max.-Head-Change                         Max.-Flux-Residual
  Residual-Control   Outer-Iter.   Inner-Iter.     Column Row Layer    Maximum-Head-Change  Column Row Layer    Maximum-Flux-Residual          L2-NORM 
          0                 1           2             4    6     1      -0.1221965492E-01       4    6    1        -0.6567923365E+00      0.1525279311E+01
          0                 2           2             4    6     1       0.1188663136E-02       4    6    1         0.6567891000E-01      0.1525598820E+00
          0                 3           1             4    6     1      -0.8094366619E-04       4    6    1        -0.4597528740E-02      0.1067919505E-01

    ------------------------------------------------
       NWT REQUIRED            3 OUTER ITERATIONS 
       AND A TOTAL OF          5 INNER ITERATIONS.
    ------------------------------------------------

 NO OUTPUT CONTROL FOR STRESS PERIOD   25   TIME STEP   27
 
 SOLVING FOR HEAD 
                                                   Max.-Head-Change                         Max.-Flux-Residual
  Residual-Control   Outer-Iter.   Inner-Iter.     Column Row Layer    Maximum-Head-Change  Column Row Layer    Maximum-Flux-Residual          L2-NORM 
          0                 1           2             4    6     1      -0.1181484597E-01       4    6    1        -0.6349126109E+00      0.1496785200E+01
          0                 2           2             4    6     1       0.1149217367E-02       4    6    1         0.6349095924E-01      0.1496074449E+00
          0                 3           1             4    6     1      -0.7825755532E-04       4    6    1        -0.4444371932E-02      0.1047252698E-01

    ------------------------------------------------
       NWT REQUIRED            3 OUTER ITERATIONS 
       AND A TOTAL OF          5 INNER ITERATIONS.
    ------------------------------------------------

 NO OUTPUT CONTROL FOR STRESS PERIOD   25   TIME STEP   28
 
 SOLVING FOR HEAD 
                                                   Max.-Head-Change                         Max.-Flux-Residual
  Residual-Control   Outer-Iter.   Inner-Iter.     Column Row Layer    Maximum-Head-Change  Column Row Layer    Maximum-Flux-Residual          L2-NORM 
          0                 1           2             4    6     1      -0.1142588661E-01       4    6    1        -0.6138832587E+00      0.1469229527E+01
          0                 2           2             4    6     1       0.1111423076E-02       4    6    1         0.6138804464E-01      0.1469227107E+00
          0                 3           1             4    6     1      -0.7568390224E-04       4    6    1        -0.4297167640E-02      0.1028458536E-01

    ------------------------------------------------
       NWT REQUIRED            3 OUTER ITERATIONS 
       AND A TOTAL OF          5 INNER ITERATIONS.
    ------------------------------------------------

 NO OUTPUT CONTROL FOR STRESS PERIOD   25   TIME STEP   29
 
 SOLVING FOR HEAD 
                                                   Max.-Head-Change                         Max.-Flux-Residual
  Residual-Control   Outer-Iter.   Inner-Iter.     Column Row Layer    Maximum-Head-Change  Column Row Layer    Maximum-Flux-Residual          L2-NORM 
          0                 1           2             4    6     1      -0.1105196599E-01       4    6    1        -0.5936772215E+00      0.1442697186E+01
          0                 2           2             4    6     1       0.1075051074E-02       4    6    1         0.5936745995E-01      0.1442694630E+00
          0                 3           1             4    6     1      -0.7320710177E-04       4    6    1        -0.4155726479E-02      0.1009885946E-01

    ------------------------------------------------
       NWT REQUIRED            3 OUTER ITERATIONS 
       AND A TOTAL OF          5 INNER ITERATIONS.
    ------------------------------------------------

 NO OUTPUT CONTROL FOR STRESS PERIOD   25   TIME STEP   30



 STREAM LISTING     PERIOD     25   STEP       30

 LAYER ROW COL. STREAM  RCH.  FLOW INTO     FLOW TO   FLOW OUT OF   OVRLND.     DIRECT     STREAM       STREAM     STREAM     STREAM   STREAMBED  STREAMBED
                SEG.NO.  NO.  STRM. RCH.    AQUIFER    STRM. RCH.    RUNOFF     PRECIP       ET          HEAD       DEPTH      WIDTH   CONDCTNC.   GRADIENT

   1    1    1     1     1    7.4712E+00  1.2395E-01   7.3473E+00  0.000E+00  0.000E+00  0.000E+00  1.09386E+03  8.152E-01  7.220E+00  3.249E-02  1.272E+00
   1    2    2     1     2    7.3473E+00  1.9029E-01   7.1570E+00  0.000E+00  0.000E+00  0.000E+00  1.08887E+03  8.094E-01  7.136E+00  4.995E-02  1.270E+00
   1    3    3     1     3    7.1570E+00  1.6067E-01   6.9963E+00  0.000E+00  0.000E+00  0.000E+00  1.08322E+03  8.029E-01  7.042E+00  4.225E-02  1.268E+00
   1    3    4     1     4    6.9963E+00  1.4674E-01   6.8496E+00  0.000E+00  0.000E+00  0.000E+00  1.07821E+03  7.979E-01  6.962E+00  3.864E-02  1.266E+00
   1    4    5     2     1    4.8496E+00  2.6862E-01   4.5810E+00  0.000E+00  0.000E+00  0.000E+00  1.07238E+03  4.439E-01  1.200E+01  7.800E-02  1.148E+00
   1    5    6     2     2    4.5810E+00  2.0582E-01   4.3752E+00  0.000E+00  0.000E+00  0.000E+00  1.06694E+03  4.303E-01  1.200E+01  6.000E-02  1.143E+00
   1    6    6     2     3    4.3752E+00  2.0510E-01   4.1701E+00  0.000E+00  0.000E+00  0.000E+00  1.06221E+03  4.184E-01  1.200E+01  6.000E-02  1.139E+00
   1    7    6     2     4    4.1701E+00  2.0437E-01   3.9657E+00  0.000E+00  0.000E+00  0.000E+00  1.05748E+03  4.062E-01  1.200E+01  6.000E-02  1.135E+00
   1    8    6     2     5    3.9657E+00  2.0363E-01   3.7620E+00  0.000E+00  0.000E+00  0.000E+00  1.05275E+03  3.939E-01  1.200E+01  6.000E-02  1.131E+00
   1    3    5     3     1    2.0000E+00  2.8252E-01   1.7175E+00  0.000E+00  0.000E+00  0.000E+00  1.07555E+03  1.909E+00  9.636E+00  7.227E-02  1.955E+00
   1    3    6     3     2    1.7175E+00  2.4905E-01   1.4684E+00  0.000E+00  0.000E+00  0.000E+00  1.07264E+03  1.727E+00  8.909E+00  6.682E-02  1.864E+00
   1    3    7     3     3    1.4684E+00  1.9718E-01   1.2712E+00  0.000E+00  0.000E+00  0.000E+00  1.06987E+03  1.555E+00  8.218E+00  5.547E-02  1.777E+00
   1    4    8     3     4    1.2712E+00  2.2567E-01   1.0456E+00  0.000E+00  0.000E+00  0.000E+00  1.06682E+03  1.364E+00  7.455E+00  6.709E-02  1.682E+00
   1    5    8     3     5    1.0456E+00  1.5790E-01   8.8768E-01  0.000E+00  0.000E+00  0.000E+00  1.06362E+03  1.164E+00  6.655E+00  4.991E-02  1.582E+00
   1    6    8     3     6    8.8768E-01  5.5980E-02   8.3170E-01  0.000E+00  0.000E+00  0.000E+00  1.06158E+03  1.036E+00  6.145E+00  1.844E-02  1.518E+00
   1    5   10     4     1    1.0000E+01  9.0919E-02   9.9091E+00  0.000E+00  0.000E+00  0.000E+00  1.07836E+03  6.368E-01  1.000E+01  2.500E-02  1.212E+00
   1    5    9     4     2    9.9091E+00  1.8158E-01   9.7275E+00  0.000E+00  0.000E+00  0.000E+00  1.07154E+03  6.315E-01  1.000E+01  5.000E-02  1.211E+00
   1    6    8     4     3    9.7275E+00  1.2689E-01   9.6006E+00  0.000E+00  0.000E+00  0.000E+00  1.06381E+03  6.256E-01  1.000E+01  3.500E-02  1.209E+00
   1    6    8     5     1    1.0432E+01  2.2686E-01   1.0205E+01  0.000E+00  0.000E+00  0.000E+00  1.05868E+03  6.790E-01  1.542E+01  6.166E-02  1.226E+00
   1    7    7     5     2    1.0205E+01  2.7894E-01   9.9265E+00  0.000E+00  0.000E+00  0.000E+00  1.05417E+03  6.732E-01  1.519E+01  7.594E-02  1.224E+00
   1    8    7     5     3    9.9265E+00  1.9221E-01   9.7343E+00  0.000E+00  0.000E+00  0.000E+00  1.04992E+03  6.676E-01  1.497E+01  5.241E-02  1.223E+00
   1    8    6     5     4    9.7343E+00  1.3577E-01   9.5985E+00  0.000E+00  0.000E+00  0.000E+00  1.04691E+03  6.637E-01  1.482E+01  3.706E-02  1.221E+00
   1    9    6     6     1    1.3361E+01  2.3005E-01   1.3131E+01  0.000E+00  0.000E+00  0.000E+00  1.04356E+03  8.341E-01  1.200E+01  6.000E-02  1.278E+00
   1   10    7     6     2    1.3131E+01  2.2952E-01   1.2901E+01  0.000E+00  0.000E+00  0.000E+00  1.03901E+03  8.254E-01  1.200E+01  6.000E-02  1.275E+00
   1   11    7     6     3    1.2901E+01  2.2900E-01   1.2672E+01  0.000E+00  0.000E+00  0.000E+00  1.03445E+03  8.166E-01  1.200E+01  6.000E-02  1.272E+00
   1   12    7     6     4    1.2672E+01  2.2847E-01   1.2444E+01  0.000E+00  0.000E+00  0.000E+00  1.02990E+03  8.078E-01  1.200E+01  6.000E-02  1.269E+00
   1   13    7     6     5    1.2444E+01  5.4194E-03   1.2438E+01  0.000E+00  0.000E+00  0.000E+00  1.02671E+03  8.033E-01  1.200E+01  2.400E-02  7.527E-02
   1   14    9     7     1    1.5000E+02  1.3897E+00   1.4861E+02  0.000E+00  0.000E+00  0.000E+00  1.03987E+03  2.288E+00  5.529E+01  5.593E-01  8.283E-01
   1   13    8     7     2    1.4861E+02  2.0187E+00   1.4659E+02  0.000E+00  0.000E+00  0.000E+00  1.03478E+03  2.279E+00  5.525E+01  6.147E-01  1.095E+00
   1   13    7     7     3    1.4659E+02  1.7873E+00   1.4480E+02  0.000E+00  0.000E+00  0.000E+00  1.02969E+03  2.268E+00  5.521E+01  5.583E-01  1.067E+00
   1   13    6     8     1    1.5724E+02  1.1595E+00   1.5608E+02  0.000E+00  0.000E+00  0.000E+00  1.02474E+03  2.863E+00  4.152E+01  4.231E-01  9.136E-01
   1   13    5     8     2    1.5608E+02  4.0450E-01   1.5568E+02  0.000E+00  0.000E+00  0.000E+00  1.01848E+03  2.858E+00  4.144E+01  4.223E-01  3.193E-01
   1   13    4     8     3    1.5568E+02 -1.6497E+00   1.5733E+02  0.000E+00  0.000E+00  0.000E+00  1.01224E+03  2.862E+00  4.150E+01  4.229E+00 -1.300E-01
   1   13    3     8     4    1.5733E+02 -3.2542E+00   1.6058E+02  0.000E+00  0.000E+00  0.000E+00  1.00600E+03  2.879E+00  4.174E+01  4.254E+00 -2.550E-01
   1   13    2     8     5    1.6058E+02 -2.4830E+00   1.6307E+02  0.000E+00  0.000E+00  0.000E+00  9.99773E+02  2.898E+00  4.202E+01  4.282E+00 -1.933E-01
   1   13    1     8     6    1.6307E+02 -1.9574E+00   1.6502E+02  0.000E+00  0.000E+00  0.000E+00  9.94788E+02  2.913E+00  4.224E+01  2.583E+00 -2.526E-01
   1    8    6     9     1    0.0000E+00  0.0000E+00   0.0000E+00  0.000E+00  0.000E+00  0.000E+00  1.07875E+03  0.000E+00  4.000E+00  0.000E+00  1.000E+00
   1    8    5     9     2    0.0000E+00  0.0000E+00   0.0000E+00  0.000E+00  0.000E+00  0.000E+00  1.07825E+03  0.000E+00  4.000E+00  0.000E+00  1.000E+00





UNSATURATED ZONE PACKAGE VOLUMETRIC BUDGET FOR  TIME STEP    30 STRESS PERIOD   25
  ------------------------------------------------------------------------------



     CUMULATIVE VOLUMES      L**3       RATES FOR THIS TIME STEP      L**3/T
     ------------------                 ------------------------

           IN:                                      IN:
           ---                                      ---
        INFILTRATION =  4260230098.7236          INFILTRATION =           0.8475

          OUT:                                     OUT:
          ----                                     ----
              UZF ET =   862881781.0263                UZF ET =           0.7500
        UZF RECHARGE =  3020037842.5488          UZF RECHARGE =       0.0000E+00

            IN - OUT =   377310475.1485              IN - OUT =       9.7500E-02

          STORAGE:                                 STORAGE:
          --------                                 --------
      STORAGE CHANGE =   377356355.0259        STORAGE CHANGE =       9.7500E-02

 PERCENT DISCREPANCY IS DIFFERENCE BETWEEN IN-OUT MINUS CHANGE IN STORAGE
 DIVIDED BY THE AVERAGE OF IN AND OUT TIMES 100

 PERCENT DISCREPANCY =          -0.00     PERCENT DISCREPANCY =           0.00






1
  VOLUMETRIC BUDGET FOR AGRICULTURAL FIELDS AT  END OF TIME STEP   30, STRESS PERIOD  25
  ------------------------------------------------------------------------------

     CUMULATIVE VOLUMES      L**3       RATES FOR THIS TIME STEP      L**3/T
     ------------------                 ------------------------

           IN:                                      IN:
           ---                                      ---
               AG WELLS  =  3700675072.0000                 AG WELLS  =           0.0000
      DIVERSION SEGMENTS =   505989536.0000        DIVERSION SEGMENTS =           0.0000
           GW IRRIGATION =           0.0000             GW IRRIGATION =           0.0000
           SW IRRIGATION =           0.0000             SW IRRIGATION =           0.0000
        SYSTEM LOSSES GW =           0.0000          SYSTEM LOSSES GW =           0.0000
        SYSTEM LOSSES SW =           0.0000          SYSTEM LOSSES SW =           0.0000

                TOTAL IN =  4206664704.0000                  TOTAL IN =           0.0000

          OUT:                                     OUT:
          ----                                     ----
               AG WELLS  =           0.0000                 AG WELLS  =           0.0000
      DIVERSION SEGMENTS =           0.0000        DIVERSION SEGMENTS =           0.0000
           GW IRRIGATION =  3700675072.0000             GW IRRIGATION =           0.0000
           SW IRRIGATION =   505998912.0000             SW IRRIGATION =           0.0000
        SYSTEM LOSSES GW =           0.0000          SYSTEM LOSSES GW =           0.0000
        SYSTEM LOSSES SW =           0.0000          SYSTEM LOSSES SW =           0.0000

               TOTAL OUT =  4206673920.0000                 TOTAL OUT =           0.0000

                IN - OUT =       -9216.0000                  IN - OUT =           0.0000

     PERCENT DISCREPANCY =          -0.00         PERCENT DISCREPANCY =           0.00



1
  VOLUMETRIC BUDGET FOR ENTIRE MODEL AT END OF TIME STEP   30, STRESS PERIOD  25
  ------------------------------------------------------------------------------

     CUMULATIVE VOLUMES      L**3       RATES FOR THIS TIME STEP      L**3/T
     ------------------                 ------------------------

           IN:                                      IN:
           ---                                      ---
             STORAGE     =  3651629568.0000               STORAGE     =           3.7493
       CONSTANT HEAD     =           0.0000         CONSTANT HEAD     =           0.0000
     HEAD DEP BOUNDS     =    18223772.0000       HEAD DEP BOUNDS     =           0.2894
      STREAM LEAKAGE     =   751075200.0000        STREAM LEAKAGE     =          11.7929
        UZF RECHARGE     =  3020038656.0000          UZF RECHARGE     =           0.0000
               GW ET     =           0.0000                 GW ET     =           0.0000
     SURFACE LEAKAGE     =           0.0000       SURFACE LEAKAGE     =           0.0000
           AG WELLS      =           0.0000             AG WELLS      =           0.0000

                TOTAL IN =  7440967168.0000                  TOTAL IN =          15.8316

          OUT:                                     OUT:
          ----                                     ----
             STORAGE     =  3097200384.0000               STORAGE     =           6.2013
       CONSTANT HEAD     =           0.0000         CONSTANT HEAD     =           0.0000
     HEAD DEP BOUNDS     =    18161792.0000       HEAD DEP BOUNDS     =           0.2867
      STREAM LEAKAGE     =   624860608.0000        STREAM LEAKAGE     =           9.3443
        UZF RECHARGE     =           0.0000          UZF RECHARGE     =           0.0000
               GW ET     =           0.0000                 GW ET     =           0.0000
     SURFACE LEAKAGE     =           0.0000       SURFACE LEAKAGE     =           0.0000
           AG WELLS      =  3700675072.0000             AG WELLS      =           0.0000

               TOTAL OUT =  7440898048.0000                 TOTAL OUT =          15.8323

                IN - OUT =       69120.0000                  IN - OUT =      -6.9714E-04

     PERCENT DISCREPANCY =           0.00         PERCENT DISCREPANCY =          -0.00






         TIME SUMMARY AT END OF TIME STEP   30 IN STRESS PERIOD   25
                    SECONDS     MINUTES      HOURS       DAYS        YEARS
                    -----------------------------------------------------------
   TIME STEP LENGTH  87667.      1461.1      24.352      1.0147     2.77799E-03
 STRESS PERIOD TIME 2.63000E+06  43833.      730.56      30.440     8.33397E-02
         TOTAL TIME 6.32067E+07 1.05345E+06  17557.      731.56      2.0029    
1
1
                            STRESS PERIOD NO.   26, LENGTH =   2630000.    
                            -----------------------------------------------

                              NUMBER OF TIME STEPS =    30

                               MULTIPLIER FOR DELT =     1.000

                            INITIAL TIME STEP SIZE =   87666.66    

 REUSING NON-PARAMETER GHB CELLS FROM LAST STRESS PERIOD

      2 GHB CELLS

 REUSING STREAM SEGMENT DATA FROM LAST STRESS PERIOD



            AREAL INFILTRATION RATE
 READING ON UNIT   19 WITH FORMAT: (FREE)              

            1           2           3           4           5           6           7           8           9          10
 ........................................................................................................................
   1   1.0000E-10  2.0000E-10   0.000       0.000       0.000       0.000       0.000       0.000       0.000       0.000    
   2   2.0000E-10  1.0000E-10  2.0000E-10   0.000       0.000      8.0000E-10  8.0000E-10  5.0000E-10   0.000       0.000    
   3    0.000      5.0000E-10  1.0000E-10  1.0000E-10  8.0000E-10  8.0000E-10  5.0000E-10  5.0000E-10   0.000       0.000    
   4   8.0000E-10  5.0000E-10  1.0000E-10  1.0000E-10  1.0000E-10  1.0000E-10  1.0000E-10  1.0000E-10  2.0000E-10   0.000    
   5   8.0000E-10  5.0000E-10  1.0000E-10  1.0000E-10  1.0000E-10  1.0000E-10  1.0000E-10  1.0000E-10  1.0000E-10  1.0000E-10
   6   8.0000E-10  5.0000E-10  5.0000E-10  2.0000E-10  2.0000E-10  1.0000E-10  1.0000E-10  1.0000E-10  1.0000E-10  5.0000E-10
   7   8.0000E-10  5.0000E-10  5.0000E-10  2.0000E-10  2.0000E-10  1.0000E-10  1.0000E-10  2.0000E-10  2.0000E-10   0.000    
   8    0.000      5.0000E-10  5.0000E-10  2.0000E-10  2.0000E-10  1.0000E-10  1.0000E-10  2.0000E-10  5.0000E-10   0.000    
   9    0.000      5.0000E-10  5.0000E-10  2.0000E-10  2.0000E-10  1.0000E-10  1.0000E-10  2.0000E-10  5.0000E-10   0.000    
  10    0.000      5.0000E-10  5.0000E-10  2.0000E-10  2.0000E-10  1.0000E-10  1.0000E-10  2.0000E-10  5.0000E-10  8.0000E-10
  11    0.000      1.0000E-10  1.0000E-10  1.0000E-10  1.0000E-10  1.0000E-10  1.0000E-10  2.0000E-10  5.0000E-10   0.000    
  12   1.0000E-10  1.0000E-10  1.0000E-10  1.0000E-10  1.0000E-10  1.0000E-10  1.0000E-10  1.0000E-10  2.0000E-10   0.000    
  13   1.0000E-10  1.0000E-10  2.0000E-10  2.0000E-10  2.0000E-10  2.0000E-10  2.0000E-10  1.0000E-10  1.0000E-10   0.000    
  14    0.000      2.0000E-10  5.0000E-10  5.0000E-10  5.0000E-10  5.0000E-10  5.0000E-10  2.0000E-10  1.0000E-10   0.000    
  15    0.000       0.000      8.0000E-10  8.0000E-10  8.0000E-10  8.0000E-10   0.000       0.000       0.000       0.000    

                  ET RATE =  5.000000E-10

 USING ET EXTINCTION DEPTH FROM PREVIOUS STRESS PERIOD. CURRENT PERIOD IS:      26

 USING EXTINCTION WATER CONTENT FROM PREVIOUS STRESS PERIOD. CURRENT PERIOD IS:      26

 USING AIR ENTRY PRESSURE FROM PREVIOUS STRESS PERIOD. CURRENT PERIOD IS:      26

 USING ROOT PRESSURE HEAD FROM PREVIOUS STRESS PERIOD. CURRENT PERIOD IS:      26

 USING ROOT ACTIVITY FROM PREVIOUS STRESS PERIOD. CURRENT PERIOD IS:      26

 PROCESSING AG STRESS PERIOD DATA

 READING AG STRESS PERIOD DATA

 READING IRRIGATION SEGMENT

 READING IRRIGATION WELL

 READING SUPPLEMENTAL WELL

 END PROCESSING AG STRESS PERIOD DATA OPTIONS
 
 SOLVING FOR HEAD 
                                                   Max.-Head-Change                         Max.-Flux-Residual
  Residual-Control   Outer-Iter.   Inner-Iter.     Column Row Layer    Maximum-Head-Change  Column Row Layer    Maximum-Flux-Residual          L2-NORM 
          0                 1           2             4    6     1      -0.1069211619E-01       4    6    1        -0.5742383550E+00      0.1416427291E+01
          0                 2           2             4    6     1       0.1040047759E-02       4    6    1         0.5742359097E-01      0.1416417898E+00
          0                 3           1             4    6     1      -0.7082350336E-04       4    6    1        -0.4019655412E-02      0.9914854051E-02

    ------------------------------------------------
       NWT REQUIRED            3 OUTER ITERATIONS 
       AND A TOTAL OF          5 INNER ITERATIONS.
    ------------------------------------------------

 NO OUTPUT CONTROL FOR STRESS PERIOD   26   TIME STEP    1
 
 SOLVING FOR HEAD 
                                                   Max.-Head-Change                         Max.-Flux-Residual
  Residual-Control   Outer-Iter.   Inner-Iter.     Column Row Layer    Maximum-Head-Change  Column Row Layer    Maximum-Flux-Residual          L2-NORM 
          0                 1           2             4    6     1      -0.1034590198E-01       4    6    1        -0.5555437677E+00      0.1394203453E+01
          0                 2           2             4    6     1       0.1006370797E-02       4    6    1         0.5555414861E-01      0.1394194257E+00
          0                 3           1             4    6     1      -0.6853022622E-04       4    6    1        -0.3888794243E-02      0.9759284276E-02

    ------------------------------------------------
       NWT REQUIRED            3 OUTER ITERATIONS 
       AND A TOTAL OF          5 INNER ITERATIONS.
    ------------------------------------------------

 NO OUTPUT CONTROL FOR STRESS PERIOD   26   TIME STEP    2
 
 SOLVING FOR HEAD 
                                                   Max.-Head-Change                         Max.-Flux-Residual
  Residual-Control   Outer-Iter.   Inner-Iter.     Column Row Layer    Maximum-Head-Change  Column Row Layer    Maximum-Flux-Residual          L2-NORM 
          0                 1           2             4    6     1      -0.1001278760E-01       4    6    1        -0.5375635310E+00      0.1370427335E+01
          0                 2           2             4    6     1       0.9739680734E-03       4    6    1         0.5375614015E-01      0.1370417256E+00
          0                 3           1             4    6     1      -0.6632371918E-04       4    6    1        -0.3762933448E-02      0.9592853556E-02

    ------------------------------------------------
       NWT REQUIRED            3 OUTER ITERATIONS 
       AND A TOTAL OF          5 INNER ITERATIONS.
    ------------------------------------------------

 NO OUTPUT CONTROL FOR STRESS PERIOD   26   TIME STEP    3
 
 SOLVING FOR HEAD 
                                                   Max.-Head-Change                         Max.-Flux-Residual
  Residual-Control   Outer-Iter.   Inner-Iter.     Column Row Layer    Maximum-Head-Change  Column Row Layer    Maximum-Flux-Residual          L2-NORM 
          0                 1           2             4    6     1      -0.9691874234E-02       4    6    1        -0.5202477813E+00      0.1347186017E+01
          0                 2           2             4    6     1       0.9427521598E-03       4    6    1         0.5202457929E-01      0.1347177187E+00
          0                 3           1             4    6     1      -0.6419802967E-04       4    6    1        -0.3641724002E-02      0.9430186507E-02

    ------------------------------------------------
       NWT REQUIRED            3 OUTER ITERATIONS 
       AND A TOTAL OF          5 INNER ITERATIONS.
    ------------------------------------------------

 NO OUTPUT CONTROL FOR STRESS PERIOD   26   TIME STEP    4
 
 SOLVING FOR HEAD 
                                                   Max.-Head-Change                         Max.-Flux-Residual
  Residual-Control   Outer-Iter.   Inner-Iter.     Column Row Layer    Maximum-Head-Change  Column Row Layer    Maximum-Flux-Residual          L2-NORM 
          0                 1           2             4    6     1      -0.9382704385E-02       4    6    1        -0.5035720010E+00      0.1324681467E+01
          0                 2           2             4    6     1       0.9126785560E-03       4    6    1         0.5035701439E-01      0.1324673843E+00
          0                 3           1             4    6     1      -0.6215012721E-04       4    6    1        -0.3524994280E-02      0.9272653061E-02

    ------------------------------------------------
       NWT REQUIRED            3 OUTER ITERATIONS 
       AND A TOTAL OF          5 INNER ITERATIONS.
    ------------------------------------------------

 NO OUTPUT CONTROL FOR STRESS PERIOD   26   TIME STEP    5
 
 SOLVING FOR HEAD 
                                                   Max.-Head-Change                         Max.-Flux-Residual
  Residual-Control   Outer-Iter.   Inner-Iter.     Column Row Layer    Maximum-Head-Change  Column Row Layer    Maximum-Flux-Residual          L2-NORM 
          0                 1           2             4    6     1      -0.9084855079E-02       4    6    1        -0.4875124693E+00      0.1302889771E+01
          0                 2           2             4    6     1       0.8837061191E-03       4    6    1         0.4875107343E-01      0.1302883415E+00
          0                 3           1             4    6     1      -0.6017721041E-04       4    6    1        -0.3412578257E-02      0.9120146642E-02

    ------------------------------------------------
       NWT REQUIRED            3 OUTER ITERATIONS 
       AND A TOTAL OF          5 INNER ITERATIONS.
    ------------------------------------------------

 NO OUTPUT CONTROL FOR STRESS PERIOD   26   TIME STEP    6
 
 SOLVING FOR HEAD 
                                                   Max.-Head-Change                         Max.-Flux-Residual
  Residual-Control   Outer-Iter.   Inner-Iter.     Column Row Layer    Maximum-Head-Change  Column Row Layer    Maximum-Flux-Residual          L2-NORM 
          0                 1           2             4    6     1      -0.8797653425E-02       4    6    1        -0.4720325329E+00      0.1281782712E+01
          0                 2           2             4    6     1       0.8557693965E-03       4    6    1         0.4720309117E-01      0.1281776988E+00
          0                 3           1             4    6     1      -0.5827482178E-04       4    6    1        -0.3304219344E-02      0.8972406163E-02

    ------------------------------------------------
       NWT REQUIRED            3 OUTER ITERATIONS 
       AND A TOTAL OF          5 INNER ITERATIONS.
    ------------------------------------------------

 NO OUTPUT CONTROL FOR STRESS PERIOD   26   TIME STEP    7
 
 SOLVING FOR HEAD 
                                                   Max.-Head-Change                         Max.-Flux-Residual
  Residual-Control   Outer-Iter.   Inner-Iter.     Column Row Layer    Maximum-Head-Change  Column Row Layer    Maximum-Flux-Residual          L2-NORM 
          0                 1           2             4    6     1      -0.8520735097E-02       4    6    1        -0.4571120256E+00      0.1261326364E+01
          0                 2           2             4    6     1       0.8288329499E-03       4    6    1         0.4571105103E-01      0.1261321366E+00
          0                 3           1             4    6     1      -0.5644054854E-04       4    6    1        -0.3199776395E-02      0.8829215355E-02

    ------------------------------------------------
       NWT REQUIRED            3 OUTER ITERATIONS 
       AND A TOTAL OF          5 INNER ITERATIONS.
    ------------------------------------------------

 NO OUTPUT CONTROL FOR STRESS PERIOD   26   TIME STEP    8
 
 SOLVING FOR HEAD 
                                                   Max.-Head-Change                         Max.-Flux-Residual
  Residual-Control   Outer-Iter.   Inner-Iter.     Column Row Layer    Maximum-Head-Change  Column Row Layer    Maximum-Flux-Residual          L2-NORM 
          0                 1           2             4    6     1      -0.8253621181E-02       4    6    1        -0.4427246962E+00      0.1241505110E+01
          0                 2           2             4    6     1       0.8028501937E-03       4    6    1         0.4427232792E-01      0.1241424762E+00
          0                 3           1             4    6     1      -0.5467121798E-04       4    6    1        -0.3099065643E-02      0.8689943113E-02

    ------------------------------------------------
       NWT REQUIRED            3 OUTER ITERATIONS 
       AND A TOTAL OF          5 INNER ITERATIONS.
    ------------------------------------------------

 NO OUTPUT CONTROL FOR STRESS PERIOD   26   TIME STEP    9
 
 SOLVING FOR HEAD 
                                                   Max.-Head-Change                         Max.-Flux-Residual
  Residual-Control   Outer-Iter.   Inner-Iter.     Column Row Layer    Maximum-Head-Change  Column Row Layer    Maximum-Flux-Residual          L2-NORM 
          0                 1           2             4    6     1      -0.7995855629E-02       4    6    1        -0.4288457139E+00      0.1222296398E+01
          0                 2           2             4    6     1       0.7777767687E-03       4    6    1         0.4288443886E-01      0.1222292666E+00
          0                 3           1             4    6     1      -0.5296380930E-04       4    6    1        -0.3001913274E-02      0.8556027296E-02

    ------------------------------------------------
       NWT REQUIRED            3 OUTER ITERATIONS 
       AND A TOTAL OF          5 INNER ITERATIONS.
    ------------------------------------------------

 NO OUTPUT CONTROL FOR STRESS PERIOD   26   TIME STEP   10
 
 SOLVING FOR HEAD 
                                                   Max.-Head-Change                         Max.-Flux-Residual
  Residual-Control   Outer-Iter.   Inner-Iter.     Column Row Layer    Maximum-Head-Change  Column Row Layer    Maximum-Flux-Residual          L2-NORM 
          0                 1           2             4    6     1      -0.7747017184E-02       4    6    1        -0.4154514329E+00      0.1203677546E+01
          0                 2           2             4    6     1       0.7535716987E-03       4    6    1         0.4154501934E-01      0.1203674242E+00
          0                 3           1             4    6     1      -0.5131553215E-04       4    6    1        -0.2908153762E-02      0.8425689938E-02

    ------------------------------------------------
       NWT REQUIRED            3 OUTER ITERATIONS 
       AND A TOTAL OF          5 INNER ITERATIONS.
    ------------------------------------------------

 NO OUTPUT CONTROL FOR STRESS PERIOD   26   TIME STEP   11
 
 SOLVING FOR HEAD 
                                                   Max.-Head-Change                         Max.-Flux-Residual
  Residual-Control   Outer-Iter.   Inner-Iter.     Column Row Layer    Maximum-Head-Change  Column Row Layer    Maximum-Flux-Residual          L2-NORM 
          0                 1           2             4    6     1      -0.7506827798E-02       4    6    1        -0.4025273723E+00      0.1185617733E+01
          0                 2           2             4    6     1       0.7324265956E-03       4    6    1         0.4041389966E-01      0.1185895406E+00
          0                 3           1             4    6     1      -0.4987562427E-04       4    6    1        -0.2828975019E-02      0.8301200990E-02

    ------------------------------------------------
       NWT REQUIRED            3 OUTER ITERATIONS 
       AND A TOTAL OF          5 INNER ITERATIONS.
    ------------------------------------------------

 NO OUTPUT CONTROL FOR STRESS PERIOD   26   TIME STEP   12
 
 SOLVING FOR HEAD 
                                                   Max.-Head-Change                         Max.-Flux-Residual
  Residual-Control   Outer-Iter.   Inner-Iter.     Column Row Layer    Maximum-Head-Change  Column Row Layer    Maximum-Flux-Residual          L2-NORM 
          0                 1           2             4    6     1      -0.7266543851E-02       4    6    1        -0.3899260100E+00      0.1168082842E+01
          0                 2           2             4    6     1       0.7068353764E-03       4    6    1         0.3899252030E-01      0.1168080410E+00
          0                 3           1             4    6     1      -0.4813295660E-04       4    6    1        -0.2729478371E-02      0.8176538314E-02

    ------------------------------------------------
       NWT REQUIRED            3 OUTER ITERATIONS 
       AND A TOTAL OF          5 INNER ITERATIONS.
    ------------------------------------------------

 NO OUTPUT CONTROL FOR STRESS PERIOD   26   TIME STEP   13
 
 SOLVING FOR HEAD 
                                                   Max.-Head-Change                         Max.-Flux-Residual
  Residual-Control   Outer-Iter.   Inner-Iter.     Column Row Layer    Maximum-Head-Change  Column Row Layer    Maximum-Flux-Residual          L2-NORM 
          0                 1           2             4    7     1      -0.7065925456E-02       4    6    1        -0.3775563998E+00      0.1151034285E+01
          0                 2           2             4    7     1       0.6873195822E-03       4    6    1         0.3775556476E-01      0.1151032184E+00
          0                 3           1             4    7     1      -0.4680393998E-04       4    6    1        -0.2642891382E-02      0.8057210295E-02

    ------------------------------------------------
       NWT REQUIRED            3 OUTER ITERATIONS 
       AND A TOTAL OF          5 INNER ITERATIONS.
    ------------------------------------------------

 NO OUTPUT CONTROL FOR STRESS PERIOD   26   TIME STEP   14
 
 SOLVING FOR HEAD 
                                                   Max.-Head-Change                         Max.-Flux-Residual
  Residual-Control   Outer-Iter.   Inner-Iter.     Column Row Layer    Maximum-Head-Change  Column Row Layer    Maximum-Flux-Residual          L2-NORM 
          0                 1           2             4    7     1      -0.6889329195E-02       4    7    1        -0.3671321526E+00      0.1134494840E+01
          0                 2           2             4    7     1       0.6701416845E-03       4    7    1         0.3671306605E-01      0.1134492961E+00
          0                 3           1             4    7     1      -0.4563418754E-04       4    7    1        -0.2569917137E-02      0.7941438758E-02

    ------------------------------------------------
       NWT REQUIRED            3 OUTER ITERATIONS 
       AND A TOTAL OF          5 INNER ITERATIONS.
    ------------------------------------------------

 NO OUTPUT CONTROL FOR STRESS PERIOD   26   TIME STEP   15
 
 SOLVING FOR HEAD 
                                                   Max.-Head-Change                         Max.-Flux-Residual
  Residual-Control   Outer-Iter.   Inner-Iter.     Column Row Layer    Maximum-Head-Change  Column Row Layer    Maximum-Flux-Residual          L2-NORM 
          0                 1           2             4    7     1      -0.6716559533E-02       4    7    1        -0.3579611074E+00      0.1118445757E+01
          0                 2           2             4    7     1       0.6533360063E-03       4    7    1         0.3579596827E-01      0.1118444034E+00
          0                 3           1             4    7     1      -0.4448978233E-04       4    7    1        -0.2505720199E-02      0.7829089587E-02

    ------------------------------------------------
       NWT REQUIRED            3 OUTER ITERATIONS 
       AND A TOTAL OF          5 INNER ITERATIONS.
    ------------------------------------------------

 NO OUTPUT CONTROL FOR STRESS PERIOD   26   TIME STEP   16
 
 SOLVING FOR HEAD 
                                                   Max.-Head-Change                         Max.-Flux-Residual
  Residual-Control   Outer-Iter.   Inner-Iter.     Column Row Layer    Maximum-Head-Change  Column Row Layer    Maximum-Flux-Residual          L2-NORM 
          0                 1           2             4    7     1      -0.6547419005E-02       4    7    1        -0.3489811197E+00      0.1102873505E+01
          0                 2           2             4    7     1       0.6368833403E-03       4    7    1         0.3489797599E-01      0.1102872117E+00
          0                 3           1             4    7     1      -0.4336941580E-04       4    7    1        -0.2442860654E-02      0.7720100738E-02

    ------------------------------------------------
       NWT REQUIRED            3 OUTER ITERATIONS 
       AND A TOTAL OF          5 INNER ITERATIONS.
    ------------------------------------------------

 NO OUTPUT CONTROL FOR STRESS PERIOD   26   TIME STEP   17
 
 SOLVING FOR HEAD 
                                                   Max.-Head-Change                         Max.-Flux-Residual
  Residual-Control   Outer-Iter.   Inner-Iter.     Column Row Layer    Maximum-Head-Change  Column Row Layer    Maximum-Flux-Residual          L2-NORM 
          0                 1           2             4    7     1      -0.6381845736E-02       4    7    1        -0.3401893003E+00      0.1087753958E+01
          0                 2           2             4    7     1       0.6207776677E-03       4    7    1         0.3401880028E-01      0.1087752700E+00
          0                 3           1             4    7     1      -0.4227267848E-04       4    7    1        -0.2381318277E-02      0.7614261743E-02

    ------------------------------------------------
       NWT REQUIRED            3 OUTER ITERATIONS 
       AND A TOTAL OF          5 INNER ITERATIONS.
    ------------------------------------------------

 NO OUTPUT CONTROL FOR STRESS PERIOD   26   TIME STEP   18
 
 SOLVING FOR HEAD 
                                                   Max.-Head-Change                         Max.-Flux-Residual
  Residual-Control   Outer-Iter.   Inner-Iter.     Column Row Layer    Maximum-Head-Change  Column Row Layer    Maximum-Flux-Residual          L2-NORM 
          0                 1           2             4    7     1      -0.6220046832E-02       4    7    1        -0.3315971384E+00      0.1073073779E+01
          0                 2           2             4    7     1       0.6050391336E-03       4    7    1         0.3315959006E-01      0.1073072766E+00
          0                 3           1             4    7     1      -0.4120094179E-04       4    7    1        -0.2321173472E-02      0.7511511910E-02

    ------------------------------------------------
       NWT REQUIRED            3 OUTER ITERATIONS 
       AND A TOTAL OF          5 INNER ITERATIONS.
    ------------------------------------------------

 NO OUTPUT CONTROL FOR STRESS PERIOD   26   TIME STEP   19
 
 SOLVING FOR HEAD 
                                                   Max.-Head-Change                         Max.-Flux-Residual
  Residual-Control   Outer-Iter.   Inner-Iter.     Column Row Layer    Maximum-Head-Change  Column Row Layer    Maximum-Flux-Residual          L2-NORM 
          0                 1           2             4    7     1      -0.6061543720E-02       4    7    1        -0.3231786283E+00      0.1058820320E+01
          0                 2           2             4    7     1       0.5896211876E-03       4    7    1         0.3231774482E-01      0.1058819713E+00
          0                 3           1             4    7     1      -0.4015103608E-04       4    7    1        -0.2262244231E-02      0.7411771282E-02

    ------------------------------------------------
       NWT REQUIRED            3 OUTER ITERATIONS 
       AND A TOTAL OF          5 INNER ITERATIONS.
    ------------------------------------------------

 NO OUTPUT CONTROL FOR STRESS PERIOD   26   TIME STEP   20
 
 SOLVING FOR HEAD 
                                                   Max.-Head-Change                         Max.-Flux-Residual
  Residual-Control   Outer-Iter.   Inner-Iter.     Column Row Layer    Maximum-Head-Change  Column Row Layer    Maximum-Flux-Residual          L2-NORM 
          0                 1           2             4    7     1      -0.5906681625E-02       4    7    1        -0.3149530487E+00      0.1044980475E+01
          0                 2           2             4    7     1       0.5745574088E-03       4    7    1         0.3149519234E-01      0.1044979545E+00
          0                 3           1             4    7     1      -0.3912524750E-04       4    7    1        -0.2204665464E-02      0.7314846773E-02

    ------------------------------------------------
       NWT REQUIRED            3 OUTER ITERATIONS 
       AND A TOTAL OF          5 INNER ITERATIONS.
    ------------------------------------------------

 NO OUTPUT CONTROL FOR STRESS PERIOD   26   TIME STEP   21
 
 SOLVING FOR HEAD 
                                                   Max.-Head-Change                         Max.-Flux-Residual
  Residual-Control   Outer-Iter.   Inner-Iter.     Column Row Layer    Maximum-Head-Change  Column Row Layer    Maximum-Flux-Residual          L2-NORM 
          0                 1           2             4    7     1      -0.5755113987E-02       4    7    1        -0.3069015558E+00      0.1031533919E+01
          0                 2           2             4    7     1       0.5598140885E-03       4    7    1         0.3069004835E-01      0.1031533145E+00
          0                 3           1             4    7     1      -0.3812128149E-04       4    7    1        -0.2148305331E-02      0.7220729374E-02

    ------------------------------------------------
       NWT REQUIRED            3 OUTER ITERATIONS 
       AND A TOTAL OF          5 INNER ITERATIONS.
    ------------------------------------------------

 NO OUTPUT CONTROL FOR STRESS PERIOD   26   TIME STEP   22
 
 SOLVING FOR HEAD 
                                                   Max.-Head-Change                         Max.-Flux-Residual
  Residual-Control   Outer-Iter.   Inner-Iter.     Column Row Layer    Maximum-Head-Change  Column Row Layer    Maximum-Flux-Residual          L2-NORM 
          0                 1           2             4    7     1      -0.5606777004E-02       4    7    1        -0.2990208782E+00      0.1018468199E+01
          0                 2           2             4    7     1       0.5453850193E-03       4    7    1         0.2990198566E-01      0.1018467530E+00
          0                 3           1             4    7     1      -0.3713871477E-04       4    7    1        -0.2093140880E-02      0.7129266306E-02

    ------------------------------------------------
       NWT REQUIRED            3 OUTER ITERATIONS 
       AND A TOTAL OF          5 INNER ITERATIONS.
    ------------------------------------------------

 NO OUTPUT CONTROL FOR STRESS PERIOD   26   TIME STEP   23
 
 SOLVING FOR HEAD 
                                                   Max.-Head-Change                         Max.-Flux-Residual
  Residual-Control   Outer-Iter.   Inner-Iter.     Column Row Layer    Maximum-Head-Change  Column Row Layer    Maximum-Flux-Residual          L2-NORM 
          0                 1           2             4    7     1      -0.5461871178E-02       4    7    1        -0.2913224042E+00      0.1005775005E+01
          0                 2           2             4    7     1       0.5312897046E-03       4    7    1         0.2913214310E-01      0.1005774413E+00
          0                 3           1             4    7     1      -0.3617887531E-04       4    7    1        -0.2039251821E-02      0.7040419418E-02

    ------------------------------------------------
       NWT REQUIRED            3 OUTER ITERATIONS 
       AND A TOTAL OF          5 INNER ITERATIONS.
    ------------------------------------------------

 NO OUTPUT CONTROL FOR STRESS PERIOD   26   TIME STEP   24
 
 SOLVING FOR HEAD 
                                                   Max.-Head-Change                         Max.-Flux-Residual
  Residual-Control   Outer-Iter.   Inner-Iter.     Column Row Layer    Maximum-Head-Change  Column Row Layer    Maximum-Flux-Residual          L2-NORM 
          0                 1           2             4    7     1      -0.5320055028E-02       4    7    1        -0.2837871364E+00      0.9934431660E+00
          0                 2           2             4    7     1       0.5174949284E-03       4    7    1         0.2837862098E-01      0.9934426321E-01
          0                 3           1             4    7     1      -0.3523950147E-04       4    7    1        -0.1986505196E-02      0.6954096774E-02

    ------------------------------------------------
       NWT REQUIRED            3 OUTER ITERATIONS 
       AND A TOTAL OF          5 INNER ITERATIONS.
    ------------------------------------------------

 NO OUTPUT CONTROL FOR STRESS PERIOD   26   TIME STEP   25
 
 SOLVING FOR HEAD 
                                                   Max.-Head-Change                         Max.-Flux-Residual
  Residual-Control   Outer-Iter.   Inner-Iter.     Column Row Layer    Maximum-Head-Change  Column Row Layer    Maximum-Flux-Residual          L2-NORM 
          0                 1           2             4    7     1      -0.5181398869E-02       4    7    1        -0.2764194141E+00      0.9814535350E+00
          0                 2           2             4    7     1       0.5040075297E-03       4    7    1         0.2764185316E-01      0.9814530363E-01
          0                 3           1             4    7     1      -0.3432105912E-04       4    7    1        -0.1934931389E-02      0.6870166669E-02

    ------------------------------------------------
       NWT REQUIRED            3 OUTER ITERATIONS 
       AND A TOTAL OF          5 INNER ITERATIONS.
    ------------------------------------------------

 NO OUTPUT CONTROL FOR STRESS PERIOD   26   TIME STEP   26
 
 SOLVING FOR HEAD 
                                                   Max.-Head-Change                         Max.-Flux-Residual
  Residual-Control   Outer-Iter.   Inner-Iter.     Column Row Layer    Maximum-Head-Change  Column Row Layer    Maximum-Flux-Residual          L2-NORM 
          0                 1           2             4    7     1      -0.5045964826E-02       4    7    1        -0.2692228828E+00      0.9698029419E+00
          0                 2           2             4    7     1       0.4908335531E-03       4    7    1         0.2692220429E-01      0.9698025236E-01
          0                 3           1             4    7     1      -0.3342395950E-04       4    7    1        -0.1884555915E-02      0.6788619642E-02

    ------------------------------------------------
       NWT REQUIRED            3 OUTER ITERATIONS 
       AND A TOTAL OF          5 INNER ITERATIONS.
    ------------------------------------------------

 NO OUTPUT CONTROL FOR STRESS PERIOD   26   TIME STEP   27
 
 SOLVING FOR HEAD 
                                                   Max.-Head-Change                         Max.-Flux-Residual
  Residual-Control   Outer-Iter.   Inner-Iter.     Column Row Layer    Maximum-Head-Change  Column Row Layer    Maximum-Flux-Residual          L2-NORM 
          0                 1           2             4    7     1      -0.4913407479E-02       4    7    1        -0.2621787193E+00      0.9584731101E+00
          0                 2           2             4    7     1       0.4779393973E-03       4    7    1         0.2621779200E-01      0.9584727695E-01
          0                 3           1             4    7     1      -0.3254591468E-04       4    7    1        -0.1835246995E-02      0.6709305439E-02

    ------------------------------------------------
       NWT REQUIRED            3 OUTER ITERATIONS 
       AND A TOTAL OF          5 INNER ITERATIONS.
    ------------------------------------------------

 NO OUTPUT CONTROL FOR STRESS PERIOD   26   TIME STEP   28
 
 SOLVING FOR HEAD 
                                                   Max.-Head-Change                         Max.-Flux-Residual
  Residual-Control   Outer-Iter.   Inner-Iter.     Column Row Layer    Maximum-Head-Change  Column Row Layer    Maximum-Flux-Residual          L2-NORM 
          0                 1           2             4    7     1      -0.4783799855E-02       4    7    1        -0.2552910582E+00      0.9474583256E+00
          0                 2           2             4    7     1       0.4653321661E-03       4    7    1         0.2552902976E-01      0.9474578863E-01
          0                 3           1             4    7     1      -0.3168740830E-04       4    7    1        -0.1787033570E-02      0.6632206856E-02

    ------------------------------------------------
       NWT REQUIRED            3 OUTER ITERATIONS 
       AND A TOTAL OF          5 INNER ITERATIONS.
    ------------------------------------------------

 NO OUTPUT CONTROL FOR STRESS PERIOD   26   TIME STEP   29
 
 SOLVING FOR HEAD 
                                                   Max.-Head-Change                         Max.-Flux-Residual
  Residual-Control   Outer-Iter.   Inner-Iter.     Column Row Layer    Maximum-Head-Change  Column Row Layer    Maximum-Flux-Residual          L2-NORM 
          0                 1           2             4    7     1      -0.4657076981E-02       4    7    1        -0.2485563378E+00      0.9367466308E+00
          0                 2           2             4    7     1       0.4530055403E-03       4    7    1         0.2485556143E-01      0.9367462128E-01
          0                 3           1             4    7     1      -0.3084801045E-04       4    7    1        -0.1739890733E-02      0.6557210389E-02

    ------------------------------------------------
       NWT REQUIRED            3 OUTER ITERATIONS 
       AND A TOTAL OF          5 INNER ITERATIONS.
    ------------------------------------------------

 NO OUTPUT CONTROL FOR STRESS PERIOD   26   TIME STEP   30



 STREAM LISTING     PERIOD     26   STEP       30

 LAYER ROW COL. STREAM  RCH.  FLOW INTO     FLOW TO   FLOW OUT OF   OVRLND.     DIRECT     STREAM       STREAM     STREAM     STREAM   STREAMBED  STREAMBED
                SEG.NO.  NO.  STRM. RCH.    AQUIFER    STRM. RCH.    RUNOFF     PRECIP       ET          HEAD       DEPTH      WIDTH   CONDCTNC.   GRADIENT

   1    1    1     1     1    8.2501E+00  1.3178E-01   8.1183E+00  0.000E+00  0.000E+00  0.000E+00  1.09389E+03  8.424E-01  7.622E+00  3.430E-02  1.281E+00
   1    2    2     1     2    8.1183E+00  2.0241E-01   7.9159E+00  0.000E+00  0.000E+00  0.000E+00  1.08890E+03  8.367E-01  7.537E+00  5.276E-02  1.279E+00
   1    3    3     1     3    7.9159E+00  1.7099E-01   7.7449E+00  0.000E+00  0.000E+00  0.000E+00  1.08325E+03  8.302E-01  7.440E+00  4.464E-02  1.277E+00
   1    3    4     1     4    7.7449E+00  1.5612E-01   7.5888E+00  0.000E+00  0.000E+00  0.000E+00  1.07823E+03  8.244E-01  7.355E+00  4.082E-02  1.275E+00
   1    4    5     2     1    5.5888E+00  2.7178E-01   5.3170E+00  0.000E+00  0.000E+00  0.000E+00  1.07242E+03  4.843E-01  1.200E+01  7.800E-02  1.161E+00
   1    5    6     2     2    5.3170E+00  2.0828E-01   5.1088E+00  0.000E+00  0.000E+00  0.000E+00  1.06698E+03  4.714E-01  1.200E+01  6.000E-02  1.157E+00
   1    6    6     2     3    5.1088E+00  2.0760E-01   4.9012E+00  0.000E+00  0.000E+00  0.000E+00  1.06225E+03  4.600E-01  1.200E+01  6.000E-02  1.153E+00
   1    7    6     2     4    4.9012E+00  2.0691E-01   4.6943E+00  0.000E+00  0.000E+00  0.000E+00  1.05752E+03  4.485E-01  1.200E+01  6.000E-02  1.150E+00
   1    8    6     2     5    4.6943E+00  2.0621E-01   4.4880E+00  0.000E+00  0.000E+00  0.000E+00  1.05280E+03  4.368E-01  1.200E+01  6.000E-02  1.146E+00
   1    3    5     3     1    2.0000E+00  2.8252E-01   1.7175E+00  0.000E+00  0.000E+00  0.000E+00  1.07555E+03  1.909E+00  9.636E+00  7.227E-02  1.955E+00
   1    3    6     3     2    1.7175E+00  2.4905E-01   1.4684E+00  0.000E+00  0.000E+00  0.000E+00  1.07264E+03  1.727E+00  8.909E+00  6.682E-02  1.864E+00
   1    3    7     3     3    1.4684E+00  1.9718E-01   1.2712E+00  0.000E+00  0.000E+00  0.000E+00  1.06987E+03  1.555E+00  8.218E+00  5.547E-02  1.777E+00
   1    4    8     3     4    1.2712E+00  2.2567E-01   1.0456E+00  0.000E+00  0.000E+00  0.000E+00  1.06682E+03  1.364E+00  7.455E+00  6.709E-02  1.682E+00
   1    5    8     3     5    1.0456E+00  1.5790E-01   8.8768E-01  0.000E+00  0.000E+00  0.000E+00  1.06362E+03  1.164E+00  6.655E+00  4.991E-02  1.582E+00
   1    6    8     3     6    8.8768E-01  5.5980E-02   8.3170E-01  0.000E+00  0.000E+00  0.000E+00  1.06158E+03  1.036E+00  6.145E+00  1.844E-02  1.518E+00
   1    5   10     4     1    1.0000E+01  9.0919E-02   9.9091E+00  0.000E+00  0.000E+00  0.000E+00  1.07836E+03  6.368E-01  1.000E+01  2.500E-02  1.212E+00
   1    5    9     4     2    9.9091E+00  1.8158E-01   9.7275E+00  0.000E+00  0.000E+00  0.000E+00  1.07154E+03  6.315E-01  1.000E+01  5.000E-02  1.211E+00
   1    6    8     4     3    9.7275E+00  1.2689E-01   9.6006E+00  0.000E+00  0.000E+00  0.000E+00  1.06381E+03  6.256E-01  1.000E+01  3.500E-02  1.209E+00
   1    6    8     5     1    1.0432E+01  2.2686E-01   1.0205E+01  0.000E+00  0.000E+00  0.000E+00  1.05868E+03  6.790E-01  1.542E+01  6.166E-02  1.226E+00
   1    7    7     5     2    1.0205E+01  2.7894E-01   9.9265E+00  0.000E+00  0.000E+00  0.000E+00  1.05417E+03  6.732E-01  1.519E+01  7.594E-02  1.224E+00
   1    8    7     5     3    9.9265E+00  1.9221E-01   9.7343E+00  0.000E+00  0.000E+00  0.000E+00  1.04992E+03  6.676E-01  1.497E+01  5.241E-02  1.223E+00
   1    8    6     5     4    9.7343E+00  1.3577E-01   9.5985E+00  0.000E+00  0.000E+00  0.000E+00  1.04691E+03  6.637E-01  1.482E+01  3.706E-02  1.221E+00
   1    9    6     6     1    1.4087E+01  2.3167E-01   1.3855E+01  0.000E+00  0.000E+00  0.000E+00  1.04359E+03  8.612E-01  1.200E+01  6.000E-02  1.287E+00
   1   10    7     6     2    1.3855E+01  2.3116E-01   1.3624E+01  0.000E+00  0.000E+00  0.000E+00  1.03903E+03  8.526E-01  1.200E+01  6.000E-02  1.284E+00
   1   11    7     6     3    1.3624E+01  2.3064E-01   1.3393E+01  0.000E+00  0.000E+00  0.000E+00  1.03448E+03  8.440E-01  1.200E+01  6.000E-02  1.281E+00
   1   12    7     6     4    1.3393E+01  2.3012E-01   1.3163E+01  0.000E+00  0.000E+00  0.000E+00  1.02993E+03  8.353E-01  1.200E+01  6.000E-02  1.278E+00
   1   13    7     6     5    1.3163E+01  6.2693E-03   1.3157E+01  0.000E+00  0.000E+00  0.000E+00  1.02674E+03  8.308E-01  1.200E+01  2.400E-02  8.707E-02
   1   14    9     7     1    1.5000E+02  1.3916E+00   1.4861E+02  0.000E+00  0.000E+00  0.000E+00  1.03987E+03  2.288E+00  5.529E+01  5.593E-01  8.294E-01
   1   13    8     7     2    1.4861E+02  2.0233E+00   1.4659E+02  0.000E+00  0.000E+00  0.000E+00  1.03478E+03  2.278E+00  5.525E+01  6.147E-01  1.097E+00
   1   13    7     7     3    1.4659E+02  1.7917E+00   1.4479E+02  0.000E+00  0.000E+00  0.000E+00  1.02969E+03  2.268E+00  5.521E+01  5.583E-01  1.070E+00
   1   13    6     8     1    1.5795E+02  1.1649E+00   1.5679E+02  0.000E+00  0.000E+00  0.000E+00  1.02474E+03  2.868E+00  4.159E+01  4.238E-01  9.163E-01
   1   13    5     8     2    1.5679E+02  4.0622E-01   1.5638E+02  0.000E+00  0.000E+00  0.000E+00  1.01849E+03  2.863E+00  4.151E+01  4.230E-01  3.201E-01
   1   13    4     8     3    1.5638E+02 -1.6504E+00   1.5803E+02  0.000E+00  0.000E+00  0.000E+00  1.01224E+03  2.867E+00  4.157E+01  4.236E+00 -1.299E-01
   1   13    3     8     4    1.5803E+02 -3.2499E+00   1.6128E+02  0.000E+00  0.000E+00  0.000E+00  1.00601E+03  2.884E+00  4.181E+01  4.261E+00 -2.543E-01
   1   13    2     8     5    1.6128E+02 -2.4771E+00   1.6376E+02  0.000E+00  0.000E+00  0.000E+00  9.99778E+02  2.903E+00  4.209E+01  4.289E+00 -1.925E-01
   1   13    1     8     6    1.6376E+02 -1.9530E+00   1.6571E+02  0.000E+00  0.000E+00  0.000E+00  9.94793E+02  2.918E+00  4.230E+01  2.587E+00 -2.517E-01
   1    8    6     9     1    0.0000E+00  0.0000E+00   0.0000E+00  0.000E+00  0.000E+00  0.000E+00  1.07875E+03  0.000E+00  4.000E+00  0.000E+00  1.000E+00
   1    8    5     9     2    0.0000E+00  0.0000E+00   0.0000E+00  0.000E+00  0.000E+00  0.000E+00  1.07825E+03  0.000E+00  4.000E+00  0.000E+00  1.000E+00





UNSATURATED ZONE PACKAGE VOLUMETRIC BUDGET FOR  TIME STEP    30 STRESS PERIOD   26
  ------------------------------------------------------------------------------



     CUMULATIVE VOLUMES      L**3       RATES FOR THIS TIME STEP      L**3/T
     ------------------                 ------------------------

           IN:                                      IN:
           ---                                      ---
        INFILTRATION =  4262459023.5963          INFILTRATION =           0.8475

          OUT:                                     OUT:
          ----                                     ----
              UZF ET =   864854280.8842                UZF ET =           0.7500
        UZF RECHARGE =  3020037842.5488          UZF RECHARGE =       0.0000E+00

            IN - OUT =   377566900.1632              IN - OUT =       9.7500E-02

          STORAGE:                                 STORAGE:
          --------                                 --------
      STORAGE CHANGE =   377612780.0600        STORAGE CHANGE =       9.7500E-02

 PERCENT DISCREPANCY IS DIFFERENCE BETWEEN IN-OUT MINUS CHANGE IN STORAGE
 DIVIDED BY THE AVERAGE OF IN AND OUT TIMES 100

 PERCENT DISCREPANCY =          -0.00     PERCENT DISCREPANCY =           0.00






1
  VOLUMETRIC BUDGET FOR AGRICULTURAL FIELDS AT  END OF TIME STEP   30, STRESS PERIOD  26
  ------------------------------------------------------------------------------

     CUMULATIVE VOLUMES      L**3       RATES FOR THIS TIME STEP      L**3/T
     ------------------                 ------------------------

           IN:                                      IN:
           ---                                      ---
               AG WELLS  =  3700675072.0000                 AG WELLS  =           0.0000
      DIVERSION SEGMENTS =   505989536.0000        DIVERSION SEGMENTS =           0.0000
           GW IRRIGATION =           0.0000             GW IRRIGATION =           0.0000
           SW IRRIGATION =           0.0000             SW IRRIGATION =           0.0000
        SYSTEM LOSSES GW =           0.0000          SYSTEM LOSSES GW =           0.0000
        SYSTEM LOSSES SW =           0.0000          SYSTEM LOSSES SW =           0.0000

                TOTAL IN =  4206664704.0000                  TOTAL IN =           0.0000

          OUT:                                     OUT:
          ----                                     ----
               AG WELLS  =           0.0000                 AG WELLS  =           0.0000
      DIVERSION SEGMENTS =           0.0000        DIVERSION SEGMENTS =           0.0000
           GW IRRIGATION =  3700675072.0000             GW IRRIGATION =           0.0000
           SW IRRIGATION =   505998912.0000             SW IRRIGATION =           0.0000
        SYSTEM LOSSES GW =           0.0000          SYSTEM LOSSES GW =           0.0000
        SYSTEM LOSSES SW =           0.0000          SYSTEM LOSSES SW =           0.0000

               TOTAL OUT =  4206673920.0000                 TOTAL OUT =           0.0000

                IN - OUT =       -9216.0000                  IN - OUT =           0.0000

     PERCENT DISCREPANCY =          -0.00         PERCENT DISCREPANCY =           0.00



1
  VOLUMETRIC BUDGET FOR ENTIRE MODEL AT END OF TIME STEP   30, STRESS PERIOD  26
  ------------------------------------------------------------------------------

     CUMULATIVE VOLUMES      L**3       RATES FOR THIS TIME STEP      L**3/T
     ------------------                 ------------------------

           IN:                                      IN:
           ---                                      ---
             STORAGE     =  3659397888.0000               STORAGE     =           2.3858
       CONSTANT HEAD     =           0.0000         CONSTANT HEAD     =           0.0000
     HEAD DEP BOUNDS     =    18985142.0000       HEAD DEP BOUNDS     =           0.2896
      STREAM LEAKAGE     =   782274432.0000        STREAM LEAKAGE     =          11.8711
        UZF RECHARGE     =  3020038656.0000          UZF RECHARGE     =           0.0000
               GW ET     =           0.0000                 GW ET     =           0.0000
     SURFACE LEAKAGE     =           0.0000       SURFACE LEAKAGE     =           0.0000
           AG WELLS      =           0.0000             AG WELLS      =           0.0000

                TOTAL IN =  7480696320.0000                  TOTAL IN =          14.5465

          OUT:                                     OUT:
          ----                                     ----
             STORAGE     =  3111672576.0000               STORAGE     =           4.9300
       CONSTANT HEAD     =           0.0000         CONSTANT HEAD     =           0.0000
     HEAD DEP BOUNDS     =    18916030.0000       HEAD DEP BOUNDS     =           0.2868
      STREAM LEAKAGE     =   649364032.0000        STREAM LEAKAGE     =           9.3304
        UZF RECHARGE     =           0.0000          UZF RECHARGE     =           0.0000
               GW ET     =           0.0000                 GW ET     =           0.0000
     SURFACE LEAKAGE     =           0.0000       SURFACE LEAKAGE     =           0.0000
           AG WELLS      =  3700675072.0000             AG WELLS      =           0.0000

               TOTAL OUT =  7480627712.0000                 TOTAL OUT =          14.5472

                IN - OUT =       68608.0000                  IN - OUT =      -7.2384E-04

     PERCENT DISCREPANCY =           0.00         PERCENT DISCREPANCY =          -0.00






         TIME SUMMARY AT END OF TIME STEP   30 IN STRESS PERIOD   26
                    SECONDS     MINUTES      HOURS       DAYS        YEARS
                    -----------------------------------------------------------
   TIME STEP LENGTH  87667.      1461.1      24.352      1.0147     2.77799E-03
 STRESS PERIOD TIME 2.63000E+06  43833.      730.56      30.440     8.33397E-02
         TOTAL TIME 6.58368E+07 1.09728E+06  18288.      762.00      2.0862    
1
1
                            STRESS PERIOD NO.   27, LENGTH =   2630000.    
                            -----------------------------------------------

                              NUMBER OF TIME STEPS =    30

                               MULTIPLIER FOR DELT =     1.000

                            INITIAL TIME STEP SIZE =   87666.66    

 REUSING NON-PARAMETER GHB CELLS FROM LAST STRESS PERIOD

      2 GHB CELLS

 REUSING STREAM SEGMENT DATA FROM LAST STRESS PERIOD



            AREAL INFILTRATION RATE
 READING ON UNIT   19 WITH FORMAT: (FREE)              

            1           2           3           4           5           6           7           8           9          10
 ........................................................................................................................
   1   1.0000E-10  2.0000E-10   0.000       0.000       0.000       0.000       0.000       0.000       0.000       0.000    
   2   2.0000E-10  1.0000E-10  2.0000E-10   0.000       0.000      8.0000E-10  8.0000E-10  5.0000E-10   0.000       0.000    
   3    0.000      5.0000E-10  1.0000E-10  1.0000E-10  8.0000E-10  8.0000E-10  5.0000E-10  5.0000E-10   0.000       0.000    
   4   8.0000E-10  5.0000E-10  1.0000E-10  1.0000E-10  1.0000E-10  1.0000E-10  1.0000E-10  1.0000E-10  2.0000E-10   0.000    
   5   8.0000E-10  5.0000E-10  1.0000E-10  1.0000E-10  1.0000E-10  1.0000E-10  1.0000E-10  1.0000E-10  1.0000E-10  1.0000E-10
   6   8.0000E-10  5.0000E-10  5.0000E-10  2.0000E-10  2.0000E-10  1.0000E-10  1.0000E-10  1.0000E-10  1.0000E-10  5.0000E-10
   7   8.0000E-10  5.0000E-10  5.0000E-10  2.0000E-10  2.0000E-10  1.0000E-10  1.0000E-10  2.0000E-10  2.0000E-10   0.000    
   8    0.000      5.0000E-10  5.0000E-10  2.0000E-10  2.0000E-10  1.0000E-10  1.0000E-10  2.0000E-10  5.0000E-10   0.000    
   9    0.000      5.0000E-10  5.0000E-10  2.0000E-10  2.0000E-10  1.0000E-10  1.0000E-10  2.0000E-10  5.0000E-10   0.000    
  10    0.000      5.0000E-10  5.0000E-10  2.0000E-10  2.0000E-10  1.0000E-10  1.0000E-10  2.0000E-10  5.0000E-10  8.0000E-10
  11    0.000      1.0000E-10  1.0000E-10  1.0000E-10  1.0000E-10  1.0000E-10  1.0000E-10  2.0000E-10  5.0000E-10   0.000    
  12   1.0000E-10  1.0000E-10  1.0000E-10  1.0000E-10  1.0000E-10  1.0000E-10  1.0000E-10  1.0000E-10  2.0000E-10   0.000    
  13   1.0000E-10  1.0000E-10  2.0000E-10  2.0000E-10  2.0000E-10  2.0000E-10  2.0000E-10  1.0000E-10  1.0000E-10   0.000    
  14    0.000      2.0000E-10  5.0000E-10  5.0000E-10  5.0000E-10  5.0000E-10  5.0000E-10  2.0000E-10  1.0000E-10   0.000    
  15    0.000       0.000      8.0000E-10  8.0000E-10  8.0000E-10  8.0000E-10   0.000       0.000       0.000       0.000    

                  ET RATE =  5.000000E-10

 USING ET EXTINCTION DEPTH FROM PREVIOUS STRESS PERIOD. CURRENT PERIOD IS:      27

 USING EXTINCTION WATER CONTENT FROM PREVIOUS STRESS PERIOD. CURRENT PERIOD IS:      27

 USING AIR ENTRY PRESSURE FROM PREVIOUS STRESS PERIOD. CURRENT PERIOD IS:      27

 USING ROOT PRESSURE HEAD FROM PREVIOUS STRESS PERIOD. CURRENT PERIOD IS:      27

 USING ROOT ACTIVITY FROM PREVIOUS STRESS PERIOD. CURRENT PERIOD IS:      27

 PROCESSING AG STRESS PERIOD DATA

 READING AG STRESS PERIOD DATA

 READING IRRIGATION SEGMENT

 READING IRRIGATION WELL

 READING SUPPLEMENTAL WELL

 END PROCESSING AG STRESS PERIOD DATA OPTIONS
 
 SOLVING FOR HEAD 
                                                   Max.-Head-Change                         Max.-Flux-Residual
  Residual-Control   Outer-Iter.   Inner-Iter.     Column Row Layer    Maximum-Head-Change  Column Row Layer    Maximum-Flux-Residual          L2-NORM 
          0                 1           2             4    7     1      -0.4533300630E-02       4    7    1        -0.2419785369E+00      0.9263301600E+00
          0                 2           2             4    7     1       0.4409655287E-03       4    7    1         0.2419778489E-01      0.9263299794E-01
          0                 3           1             4    7     1      -0.3002812974E-04       4    7    1        -0.1693846328E-02      0.6484308697E-02

    ------------------------------------------------
       NWT REQUIRED            3 OUTER ITERATIONS 
       AND A TOTAL OF          5 INNER ITERATIONS.
    ------------------------------------------------

 NO OUTPUT CONTROL FOR STRESS PERIOD   27   TIME STEP    1
 
 SOLVING FOR HEAD 
                                                   Max.-Head-Change                         Max.-Flux-Residual
  Residual-Control   Outer-Iter.   Inner-Iter.     Column Row Layer    Maximum-Head-Change  Column Row Layer    Maximum-Flux-Residual          L2-NORM 
          0                 1           2             4    7     1      -0.4412119614E-02       4    7    1        -0.2355388152E+00      0.9208053385E+00
          0                 2           2             4    7     1       0.4291779698E-03       4    7    1         0.2355381609E-01      0.9207536359E-01
          0                 3           1             4    7     1      -0.2922544039E-04       4    7    1        -0.1648768459E-02      0.6444839012E-02

    ------------------------------------------------
       NWT REQUIRED            3 OUTER ITERATIONS 
       AND A TOTAL OF          5 INNER ITERATIONS.
    ------------------------------------------------

 NO OUTPUT CONTROL FOR STRESS PERIOD   27   TIME STEP    2
 
 SOLVING FOR HEAD 
                                                   Max.-Head-Change                         Max.-Flux-Residual
  Residual-Control   Outer-Iter.   Inner-Iter.     Column Row Layer    Maximum-Head-Change  Column Row Layer    Maximum-Flux-Residual          L2-NORM 
          0                 1           2             4    7     1      -0.4293674726E-02       4    7    1        -0.2292483545E+00      0.9847510266E+00
          0                 2           2             4    7     1       0.4176565601E-03       4    7    1         0.2292477325E-01      0.9824284033E-01
          0                 3           1             4    7     1      -0.2844087465E-04       4    7    1        -0.1604735411E-02      0.6855708861E-02

    ------------------------------------------------
       NWT REQUIRED            3 OUTER ITERATIONS 
       AND A TOTAL OF          5 INNER ITERATIONS.
    ------------------------------------------------

 NO OUTPUT CONTROL FOR STRESS PERIOD   27   TIME STEP    3
 
 SOLVING FOR HEAD 
                                                   Max.-Head-Change                         Max.-Flux-Residual
  Residual-Control   Outer-Iter.   Inner-Iter.     Column Row Layer    Maximum-Head-Change  Column Row Layer    Maximum-Flux-Residual          L2-NORM 
          0                 1           2             4    7     1      -0.4177764933E-02       4    7    1        -0.2230924110E+00      0.9693285060E+00
          0                 2           2             4    7     1       0.4063817429E-03       4    7    1         0.2230918198E-01      0.9673078534E-01
          0                 3           1             4    7     1      -0.2767310111E-04       4    7    1        -0.1561643971E-02      0.6752927572E-02

    ------------------------------------------------
       NWT REQUIRED            3 OUTER ITERATIONS 
       AND A TOTAL OF          5 INNER ITERATIONS.
    ------------------------------------------------

 NO OUTPUT CONTROL FOR STRESS PERIOD   27   TIME STEP    4
 
 SOLVING FOR HEAD 
                                                   Max.-Head-Change                         Max.-Flux-Residual
  Residual-Control   Outer-Iter.   Inner-Iter.     Column Row Layer    Maximum-Head-Change  Column Row Layer    Maximum-Flux-Residual          L2-NORM 
          0                 1           2             4    7     1      -0.4064334305E-02       4    7    1        -0.2170679099E+00      0.9549922260E+00
          0                 2           2             4    7     1       0.3953480792E-03       4    7    1         0.2170673481E-01      0.9532320467E-01
          0                 3           1             4    7     1      -0.2692174891E-04       4    7    1        -0.1519472631E-02      0.6656611507E-02

    ------------------------------------------------
       NWT REQUIRED            3 OUTER ITERATIONS 
       AND A TOTAL OF          5 INNER ITERATIONS.
    ------------------------------------------------

 NO OUTPUT CONTROL FOR STRESS PERIOD   27   TIME STEP    5
 
 SOLVING FOR HEAD 
                                                   Max.-Head-Change                         Max.-Flux-Residual
  Residual-Control   Outer-Iter.   Inner-Iter.     Column Row Layer    Maximum-Head-Change  Column Row Layer    Maximum-Flux-Residual          L2-NORM 
          0                 1           2             3    9     1       0.4008961969E-02       4    7    1        -0.2111792988E+00      0.9416190696E+00
          0                 2           2             3    9     1      -0.3899631658E-03       4    7    1         0.2111787653E-01      0.9400912758E-01
          0                 3           1             3    9     1       0.2655505184E-04       4    7    1        -0.1478252511E-02      0.6566818064E-02

    ------------------------------------------------
       NWT REQUIRED            3 OUTER ITERATIONS 
       AND A TOTAL OF          5 INNER ITERATIONS.
    ------------------------------------------------

 NO OUTPUT CONTROL FOR STRESS PERIOD   27   TIME STEP    6
 
 SOLVING FOR HEAD 
                                                   Max.-Head-Change                         Max.-Flux-Residual
  Residual-Control   Outer-Iter.   Inner-Iter.     Column Row Layer    Maximum-Head-Change  Column Row Layer    Maximum-Flux-Residual          L2-NORM 
          0                 1           2             3    9     1       0.3968146516E-02       4    7    1        -0.2054160865E+00      0.9290867354E+00
          0                 2           2             3    9     1      -0.3859929248E-03       4    7    1         0.2054155796E-01      0.9277570705E-01
          0                 3           1             3    9     1       0.2628469369E-04       4    7    1        -0.1437910145E-02      0.6482290743E-02

    ------------------------------------------------
       NWT REQUIRED            3 OUTER ITERATIONS 
       AND A TOTAL OF          5 INNER ITERATIONS.
    ------------------------------------------------

 NO OUTPUT CONTROL FOR STRESS PERIOD   27   TIME STEP    7
 
 SOLVING FOR HEAD 
                                                   Max.-Head-Change                         Max.-Flux-Residual
  Residual-Control   Outer-Iter.   Inner-Iter.     Column Row Layer    Maximum-Head-Change  Column Row Layer    Maximum-Flux-Residual          L2-NORM 
          0                 1           2             3    9     1       0.3927777605E-02       5    4    1         0.2020886647E+00      0.9173137728E+00
          0                 2           2             3    9     1      -0.3820661196E-03       5    4    1        -0.2020889640E-01      0.9161543908E-01
          0                 3           1             3    9     1       0.2601729348E-04       5    4    1         0.1414623077E-02      0.6402181291E-02

    ------------------------------------------------
       NWT REQUIRED            3 OUTER ITERATIONS 
       AND A TOTAL OF          5 INNER ITERATIONS.
    ------------------------------------------------

 NO OUTPUT CONTROL FOR STRESS PERIOD   27   TIME STEP    8
 
 SOLVING FOR HEAD 
                                                   Max.-Head-Change                         Max.-Flux-Residual
  Residual-Control   Outer-Iter.   Inner-Iter.     Column Row Layer    Maximum-Head-Change  Column Row Layer    Maximum-Flux-Residual          L2-NORM 
          0                 1           2             3    9     1       0.3887849567E-02       5    4    1         0.1995492634E+00      0.9062077575E+00
          0                 2           2             3    9     1      -0.3781822000E-03       5    4    1        -0.1995495516E-01      0.9051984436E-01
          0                 3           1             3    9     1       0.2575281382E-04       5    4    1         0.1396847201E-02      0.6327110502E-02

    ------------------------------------------------
       NWT REQUIRED            3 OUTER ITERATIONS 
       AND A TOTAL OF          5 INNER ITERATIONS.
    ------------------------------------------------

 NO OUTPUT CONTROL FOR STRESS PERIOD   27   TIME STEP    9
 
 SOLVING FOR HEAD 
                                                   Max.-Head-Change                         Max.-Flux-Residual
  Residual-Control   Outer-Iter.   Inner-Iter.     Column Row Layer    Maximum-Head-Change  Column Row Layer    Maximum-Flux-Residual          L2-NORM 
          0                 1           2             3    9     1       0.3848570532E-02       5    4    1         0.1970801590E+00      0.8957057818E+00
          0                 2           2             3    9     1      -0.3743614109E-03       5    4    1        -0.1970804369E-01      0.8948252029E-01
          0                 3           1             3    9     1       0.2549263286E-04       5    4    1         0.1379563378E-02      0.6255632094E-02

    ------------------------------------------------
       NWT REQUIRED            3 OUTER ITERATIONS 
       AND A TOTAL OF          5 INNER ITERATIONS.
    ------------------------------------------------

 NO OUTPUT CONTROL FOR STRESS PERIOD   27   TIME STEP   10
 
 SOLVING FOR HEAD 
                                                   Max.-Head-Change                         Max.-Flux-Residual
  Residual-Control   Outer-Iter.   Inner-Iter.     Column Row Layer    Maximum-Head-Change  Column Row Layer    Maximum-Flux-Residual          L2-NORM 
          0                 1           2             3    9     1       0.3809723541E-02       6    4    1         0.1957074994E+00      0.8857422036E+00
          0                 2           2             3    9     1      -0.3705826479E-03       6    4    1        -0.1957076296E-01      0.8849758224E-01
          0                 3           1             3    9     1       0.2523531351E-04       6    4    1         0.1369953877E-02      0.6188188490E-02

    ------------------------------------------------
       NWT REQUIRED            3 OUTER ITERATIONS 
       AND A TOTAL OF          5 INNER ITERATIONS.
    ------------------------------------------------

 NO OUTPUT CONTROL FOR STRESS PERIOD   27   TIME STEP   11
 
 SOLVING FOR HEAD 
                                                   Max.-Head-Change                         Max.-Flux-Residual
  Residual-Control   Outer-Iter.   Inner-Iter.     Column Row Layer    Maximum-Head-Change  Column Row Layer    Maximum-Flux-Residual          L2-NORM 
          0                 1           2             3    9     1       0.3771515914E-02       6    4    1         0.1945078946E+00      0.8762647552E+00
          0                 2           2             3    9     1      -0.3668660780E-03       6    4    1        -0.1945080261E-01      0.8755935829E-01
          0                 3           1             3    9     1       0.2498222967E-04       6    4    1         0.1361556642E-02      0.6122865438E-02

    ------------------------------------------------
       NWT REQUIRED            3 OUTER ITERATIONS 
       AND A TOTAL OF          5 INNER ITERATIONS.
    ------------------------------------------------

 NO OUTPUT CONTROL FOR STRESS PERIOD   27   TIME STEP   12
 
 SOLVING FOR HEAD 
                                                   Max.-Head-Change                         Max.-Flux-Residual
  Residual-Control   Outer-Iter.   Inner-Iter.     Column Row Layer    Maximum-Head-Change  Column Row Layer    Maximum-Flux-Residual          L2-NORM 
          0                 1           2             3    9     1       0.3733729382E-02       6    4    1         0.1932919926E+00      0.8672213643E+00
          0                 2           2             3    9     1      -0.3631904697E-03       6    4    1        -0.1932921253E-01      0.8666351500E-01
          0                 3           1             3    9     1       0.2473193514E-04       6    4    1         0.1353045323E-02      0.6061116163E-02

    ------------------------------------------------
       NWT REQUIRED            3 OUTER ITERATIONS 
       AND A TOTAL OF          5 INNER ITERATIONS.
    ------------------------------------------------

 NO OUTPUT CONTROL FOR STRESS PERIOD   27   TIME STEP   13
 
 SOLVING FOR HEAD 
                                                   Max.-Head-Change                         Max.-Flux-Residual
  Residual-Control   Outer-Iter.   Inner-Iter.     Column Row Layer    Maximum-Head-Change  Column Row Layer    Maximum-Flux-Residual          L2-NORM 
          0                 1           2             3    9     1       0.3696569710E-02       6    4    1         0.1920677609E+00      0.8585857816E+00
          0                 2           2             3    9     1      -0.3595758374E-03       6    4    1        -0.1920678946E-01      0.8580728215E-01
          0                 3           1             3    9     1       0.2448579198E-04       6    4    1         0.1344475714E-02      0.6001852099E-02

    ------------------------------------------------
       NWT REQUIRED            3 OUTER ITERATIONS 
       AND A TOTAL OF          5 INNER ITERATIONS.
    ------------------------------------------------

 NO OUTPUT CONTROL FOR STRESS PERIOD   27   TIME STEP   14
 
 SOLVING FOR HEAD 
                                                   Max.-Head-Change                         Max.-Flux-Residual
  Residual-Control   Outer-Iter.   Inner-Iter.     Column Row Layer    Maximum-Head-Change  Column Row Layer    Maximum-Flux-Residual          L2-NORM 
          0                 1           2             3    9     1       0.3659820459E-02       6    4    1         0.1908368855E+00      0.8503142088E+00
          0                 2           2             3    9     1      -0.3560011283E-03       6    4    1        -0.1908370198E-01      0.8498645378E-01
          0                 3           1             3    9     1       0.2424236832E-04       6    4    1         0.1335859590E-02      0.5945080369E-02

    ------------------------------------------------
       NWT REQUIRED            3 OUTER ITERATIONS 
       AND A TOTAL OF          5 INNER ITERATIONS.
    ------------------------------------------------

 NO OUTPUT CONTROL FOR STRESS PERIOD   27   TIME STEP   15
 
 SOLVING FOR HEAD 
                                                   Max.-Head-Change                         Max.-Flux-Residual
  Residual-Control   Outer-Iter.   Inner-Iter.     Column Row Layer    Maximum-Head-Change  Column Row Layer    Maximum-Flux-Residual          L2-NORM 
          0                 1           2             6    4     1       0.3626408702E-02       6    4    1         0.1895948488E+00      0.8423648183E+00
          0                 2           2             6    4     1      -0.3527508809E-03       6    4    1        -0.1895949836E-01      0.8419685598E-01
          0                 3           1             6    4     1       0.2402102591E-04       6    4    1         0.1327165313E-02      0.5890309196E-02

    ------------------------------------------------
       NWT REQUIRED            3 OUTER ITERATIONS 
       AND A TOTAL OF          5 INNER ITERATIONS.
    ------------------------------------------------

 NO OUTPUT CONTROL FOR STRESS PERIOD   27   TIME STEP   16
 
 SOLVING FOR HEAD 
                                                   Max.-Head-Change                         Max.-Flux-Residual
  Residual-Control   Outer-Iter.   Inner-Iter.     Column Row Layer    Maximum-Head-Change  Column Row Layer    Maximum-Flux-Residual          L2-NORM 
          0                 1           2             6    4     1       0.3602346325E-02       6    4    1         0.1883493752E+00      0.8347351556E+00
          0                 2           2             6    4     1      -0.3504102681E-03       6    4    1        -0.1883495102E-01      0.8343890989E-01
          0                 3           1             6    4     1       0.2386163901E-04       6    4    1         0.1318447008E-02      0.5837597663E-02

    ------------------------------------------------
       NWT REQUIRED            3 OUTER ITERATIONS 
       AND A TOTAL OF          5 INNER ITERATIONS.
    ------------------------------------------------

 NO OUTPUT CONTROL FOR STRESS PERIOD   27   TIME STEP   17
 
 SOLVING FOR HEAD 
                                                   Max.-Head-Change                         Max.-Flux-Residual
  Residual-Control   Outer-Iter.   Inner-Iter.     Column Row Layer    Maximum-Head-Change  Column Row Layer    Maximum-Flux-Residual          L2-NORM 
          0                 1           2             6    4     1       0.3578266602E-02       6    4    1         0.1871017603E+00      0.8273875816E+00
          0                 2           2             6    4     1      -0.3480679679E-03       6    4    1        -0.1871018955E-01      0.8270823654E-01
          0                 3           1             6    4     1       0.2370213720E-04       6    4    1         0.1309713710E-02      0.5786923357E-02

    ------------------------------------------------
       NWT REQUIRED            3 OUTER ITERATIONS 
       AND A TOTAL OF          5 INNER ITERATIONS.
    ------------------------------------------------

 NO OUTPUT CONTROL FOR STRESS PERIOD   27   TIME STEP   18
 
 SOLVING FOR HEAD 
                                                   Max.-Head-Change                         Max.-Flux-Residual
  Residual-Control   Outer-Iter.   Inner-Iter.     Column Row Layer    Maximum-Head-Change  Column Row Layer    Maximum-Flux-Residual          L2-NORM 
          0                 1           2             6    4     1       0.3554080297E-02       6    4    1         0.1858472631E+00      0.8203072585E+00
          0                 2           2             6    4     1      -0.3457152996E-03       6    4    1        -0.1858473983E-01      0.8200377883E-01
          0                 3           1             6    4     1       0.2354192903E-04       6    4    1         0.1300932213E-02      0.5737828473E-02

    ------------------------------------------------
       NWT REQUIRED            3 OUTER ITERATIONS 
       AND A TOTAL OF          5 INNER ITERATIONS.
    ------------------------------------------------

 NO OUTPUT CONTROL FOR STRESS PERIOD   27   TIME STEP   19
 
 SOLVING FOR HEAD 
                                                   Max.-Head-Change                         Max.-Flux-Residual
  Residual-Control   Outer-Iter.   Inner-Iter.     Column Row Layer    Maximum-Head-Change  Column Row Layer    Maximum-Flux-Residual          L2-NORM 
          0                 1           2             6    4     1       0.3529924348E-02       6    4    1         0.1845932232E+00      0.8134714534E+00
          0                 2           2             6    4     1      -0.3433655843E-03       6    4    1        -0.1845933585E-01      0.8132317913E-01
          0                 3           1             6    4     1       0.2338192193E-04       6    4    1         0.1292153932E-02      0.5690420477E-02

    ------------------------------------------------
       NWT REQUIRED            3 OUTER ITERATIONS 
       AND A TOTAL OF          5 INNER ITERATIONS.
    ------------------------------------------------

 NO OUTPUT CONTROL FOR STRESS PERIOD   27   TIME STEP   20
 
 SOLVING FOR HEAD 
                                                   Max.-Head-Change                         Max.-Flux-Residual
  Residual-Control   Outer-Iter.   Inner-Iter.     Column Row Layer    Maximum-Head-Change  Column Row Layer    Maximum-Flux-Residual          L2-NORM 
          0                 1           2             6    4     1       0.3505815963E-02       6    4    1         0.1833407577E+00      0.8068634746E+00
          0                 2           2             6    4     1      -0.3410204952E-03       6    4    1        -0.1833408924E-01      0.8066528803E-01
          0                 3           1             6    4     1       0.2322223042E-04       6    4    1         0.1283386676E-02      0.5644675456E-02

    ------------------------------------------------
       NWT REQUIRED            3 OUTER ITERATIONS 
       AND A TOTAL OF          5 INNER ITERATIONS.
    ------------------------------------------------

 NO OUTPUT CONTROL FOR STRESS PERIOD   27   TIME STEP   21
 
 SOLVING FOR HEAD 
                                                   Max.-Head-Change                         Max.-Flux-Residual
  Residual-Control   Outer-Iter.   Inner-Iter.     Column Row Layer    Maximum-Head-Change  Column Row Layer    Maximum-Flux-Residual          L2-NORM 
          0                 1           2             6    4     1       0.3481660937E-02       6    4    1         0.1820847751E+00      0.8004782616E+00
          0                 2           2             6    4     1      -0.3386708695E-03       6    4    1        -0.1820849096E-01      0.8002910819E-01
          0                 3           1             6    4     1       0.2306222971E-04       6    4    1         0.1274594805E-02      0.5600300404E-02

    ------------------------------------------------
       NWT REQUIRED            3 OUTER ITERATIONS 
       AND A TOTAL OF          5 INNER ITERATIONS.
    ------------------------------------------------

 NO OUTPUT CONTROL FOR STRESS PERIOD   27   TIME STEP   22
 
 SOLVING FOR HEAD 
                                                   Max.-Head-Change                         Max.-Flux-Residual
  Residual-Control   Outer-Iter.   Inner-Iter.     Column Row Layer    Maximum-Head-Change  Column Row Layer    Maximum-Flux-Residual          L2-NORM 
          0                 1           2             6    4     1       0.3457590966E-02       6    4    1         0.1808323579E+00      0.7942920051E+00
          0                 2           2             6    4     1      -0.3363295164E-03       6    4    1        -0.1808324918E-01      0.7941249103E-01
          0                 3           1             6    4     1       0.2290279192E-04       6    4    1         0.1265827859E-02      0.5557136841E-02

    ------------------------------------------------
       NWT REQUIRED            3 OUTER ITERATIONS 
       AND A TOTAL OF          5 INNER ITERATIONS.
    ------------------------------------------------

 NO OUTPUT CONTROL FOR STRESS PERIOD   27   TIME STEP   23
 
 SOLVING FOR HEAD 
                                                   Max.-Head-Change                         Max.-Flux-Residual
  Residual-Control   Outer-Iter.   Inner-Iter.     Column Row Layer    Maximum-Head-Change  Column Row Layer    Maximum-Flux-Residual          L2-NORM 
          0                 1           2             6    4     1       0.3433511163E-02       6    4    1         0.1795783674E+00      0.7882956785E+00
          0                 2           2             6    4     1      -0.3339872068E-03       6    4    1        -0.1795785006E-01      0.7881478001E-01
          0                 3           1             6    4     1       0.2274328928E-04       6    4    1         0.1257049907E-02      0.5515665077E-02

    ------------------------------------------------
       NWT REQUIRED            3 OUTER ITERATIONS 
       AND A TOTAL OF          5 INNER ITERATIONS.
    ------------------------------------------------

 NO OUTPUT CONTROL FOR STRESS PERIOD   27   TIME STEP   24
 
 SOLVING FOR HEAD 
                                                   Max.-Head-Change                         Max.-Flux-Residual
  Residual-Control   Outer-Iter.   Inner-Iter.     Column Row Layer    Maximum-Head-Change  Column Row Layer    Maximum-Flux-Residual          L2-NORM 
          0                 1           2             6    4     1       0.3409660937E-02       6    4    1         0.1783358345E+00      0.7824818156E+00
          0                 2           2             6    4     1      -0.3316672293E-03       6    4    1        -0.1783359670E-01      0.7823509232E-01
          0                 3           1             6    4     1       0.2258530774E-04       6    4    1         0.1248352194E-02      0.5475264855E-02

    ------------------------------------------------
       NWT REQUIRED            3 OUTER ITERATIONS 
       AND A TOTAL OF          5 INNER ITERATIONS.
    ------------------------------------------------

 NO OUTPUT CONTROL FOR STRESS PERIOD   27   TIME STEP   25
 
 SOLVING FOR HEAD 
                                                   Max.-Head-Change                         Max.-Flux-Residual
  Residual-Control   Outer-Iter.   Inner-Iter.     Column Row Layer    Maximum-Head-Change  Column Row Layer    Maximum-Flux-Residual          L2-NORM 
          0                 1           2             6    4     1       0.3385713255E-02       6    4    1         0.1770872543E+00      0.7768371690E+00
          0                 2           2             6    4     1      -0.3293377712E-03       6    4    1        -0.1770873858E-01      0.7767175401E-01
          0                 3           1             6    4     1       0.2242668044E-04       6    4    1         0.1239612117E-02      0.5435728327E-02

    ------------------------------------------------
       NWT REQUIRED            3 OUTER ITERATIONS 
       AND A TOTAL OF          5 INNER ITERATIONS.
    ------------------------------------------------

 NO OUTPUT CONTROL FOR STRESS PERIOD   27   TIME STEP   26
 
 SOLVING FOR HEAD 
                                                   Max.-Head-Change                         Max.-Flux-Residual
  Residual-Control   Outer-Iter.   Inner-Iter.     Column Row Layer    Maximum-Head-Change  Column Row Layer    Maximum-Flux-Residual          L2-NORM 
          0                 1           2             6    4     1       0.3362023857E-02       6    4    1         0.1758515722E+00      0.7713588532E+00
          0                 2           2             6    4     1      -0.3270334375E-03       6    4    1        -0.1758517030E-01      0.7712542326E-01
          0                 3           1             6    4     1       0.2226976357E-04       6    4    1         0.1230962332E-02      0.5397854507E-02

    ------------------------------------------------
       NWT REQUIRED            3 OUTER ITERATIONS 
       AND A TOTAL OF          5 INNER ITERATIONS.
    ------------------------------------------------

 NO OUTPUT CONTROL FOR STRESS PERIOD   27   TIME STEP   27
 
 SOLVING FOR HEAD 
                                                   Max.-Head-Change                         Max.-Flux-Residual
  Residual-Control   Outer-Iter.   Inner-Iter.     Column Row Layer    Maximum-Head-Change  Column Row Layer    Maximum-Flux-Residual          L2-NORM 
          0                 1           2             6    4     1       0.3338375308E-02       6    4    1         0.1746173147E+00      0.7660350881E+00
          0                 2           2             6    4     1      -0.3247330766E-03       6    4    1        -0.1746174444E-01      0.7659408747E-01
          0                 3           1             6    4     1       0.2211311758E-04       6    4    1         0.1222322507E-02      0.5360710323E-02

    ------------------------------------------------
       NWT REQUIRED            3 OUTER ITERATIONS 
       AND A TOTAL OF          5 INNER ITERATIONS.
    ------------------------------------------------

 NO OUTPUT CONTROL FOR STRESS PERIOD   27   TIME STEP   28
 
 SOLVING FOR HEAD 
                                                   Max.-Head-Change                         Max.-Flux-Residual
  Residual-Control   Outer-Iter.   Inner-Iter.     Column Row Layer    Maximum-Head-Change  Column Row Layer    Maximum-Flux-Residual          L2-NORM 
          0                 1           2             6    4     1       0.3314892471E-02       6    4    1         0.1733911591E+00      0.7608576150E+00
          0                 2           2             6    4     1      -0.3222794981E-03       6    4    1        -0.1732842915E-01      0.7607709449E-01
          0                 3           1             6    4     1       0.2194603785E-04       6    4    1         0.1212990441E-02      0.5324589765E-02

    ------------------------------------------------
       NWT REQUIRED            3 OUTER ITERATIONS 
       AND A TOTAL OF          5 INNER ITERATIONS.
    ------------------------------------------------

 NO OUTPUT CONTROL FOR STRESS PERIOD   27   TIME STEP   29
 
 SOLVING FOR HEAD 
                                                   Max.-Head-Change                         Max.-Flux-Residual
  Residual-Control   Outer-Iter.   Inner-Iter.     Column Row Layer    Maximum-Head-Change  Column Row Layer    Maximum-Flux-Residual          L2-NORM 
          0                 1           2             6    4     1       0.3291878539E-02       6    4    1         0.1721766428E+00      0.7558221422E+00
          0                 2           2             6    4     1      -0.3202102073E-03       6    4    1        -0.1721767715E-01      0.7557455547E-01
          0                 3           1             6    4     1       0.2180512696E-04       6    4    1         0.1205237797E-02      0.5289511201E-02

    ------------------------------------------------
       NWT REQUIRED            3 OUTER ITERATIONS 
       AND A TOTAL OF          5 INNER ITERATIONS.
    ------------------------------------------------

 NO OUTPUT CONTROL FOR STRESS PERIOD   27   TIME STEP   30



 STREAM LISTING     PERIOD     27   STEP       30

 LAYER ROW COL. STREAM  RCH.  FLOW INTO     FLOW TO   FLOW OUT OF   OVRLND.     DIRECT     STREAM       STREAM     STREAM     STREAM   STREAMBED  STREAMBED
                SEG.NO.  NO.  STRM. RCH.    AQUIFER    STRM. RCH.    RUNOFF     PRECIP       ET          HEAD       DEPTH      WIDTH   CONDCTNC.   GRADIENT

   1    1    1     1     1    1.5750E+01  1.9239E-01   1.5557E+01  0.000E+00  0.000E+00  0.000E+00  1.09407E+03  1.025E+00  1.062E+01  4.780E-02  1.342E+00
   1    2    2     1     2    1.5557E+01  2.9659E-01   1.5261E+01  0.000E+00  0.000E+00  0.000E+00  1.08908E+03  1.020E+00  1.054E+01  7.378E-02  1.340E+00
   1    3    3     1     3    1.5261E+01  2.5163E-01   1.5009E+01  0.000E+00  0.000E+00  0.000E+00  1.08343E+03  1.015E+00  1.045E+01  6.268E-02  1.338E+00
   1    3    4     1     4    1.5009E+01  2.3063E-01   1.4778E+01  0.000E+00  0.000E+00  0.000E+00  1.07842E+03  1.010E+00  1.036E+01  5.751E-02  1.337E+00
   1    4    5     2     1    1.2778E+01  2.9653E-01   1.2482E+01  0.000E+00  0.000E+00  0.000E+00  1.07274E+03  8.017E-01  1.200E+01  7.800E-02  1.267E+00
   1    5    6     2     2    1.2482E+01  2.2750E-01   1.2254E+01  0.000E+00  0.000E+00  0.000E+00  1.06730E+03  7.916E-01  1.200E+01  6.000E-02  1.264E+00
   1    6    6     2     3    1.2254E+01  2.2697E-01   1.2027E+01  0.000E+00  0.000E+00  0.000E+00  1.06258E+03  7.829E-01  1.200E+01  6.000E-02  1.261E+00
   1    7    6     2     4    1.2027E+01  2.2644E-01   1.1801E+01  0.000E+00  0.000E+00  0.000E+00  1.05785E+03  7.741E-01  1.200E+01  6.000E-02  1.258E+00
   1    8    6     2     5    1.1801E+01  2.2591E-01   1.1575E+01  0.000E+00  0.000E+00  0.000E+00  1.05312E+03  7.652E-01  1.200E+01  6.000E-02  1.255E+00
   1    3    5     3     1    2.0000E+00  2.8252E-01   1.7175E+00  0.000E+00  0.000E+00  0.000E+00  1.07555E+03  1.909E+00  9.636E+00  7.227E-02  1.955E+00
   1    3    6     3     2    1.7175E+00  2.4905E-01   1.4684E+00  0.000E+00  0.000E+00  0.000E+00  1.07264E+03  1.727E+00  8.909E+00  6.682E-02  1.864E+00
   1    3    7     3     3    1.4684E+00  1.9718E-01   1.2712E+00  0.000E+00  0.000E+00  0.000E+00  1.06987E+03  1.555E+00  8.218E+00  5.547E-02  1.777E+00
   1    4    8     3     4    1.2712E+00  2.2567E-01   1.0456E+00  0.000E+00  0.000E+00  0.000E+00  1.06682E+03  1.364E+00  7.455E+00  6.709E-02  1.682E+00
   1    5    8     3     5    1.0456E+00  1.5790E-01   8.8768E-01  0.000E+00  0.000E+00  0.000E+00  1.06362E+03  1.164E+00  6.655E+00  4.991E-02  1.582E+00
   1    6    8     3     6    8.8768E-01  5.5980E-02   8.3170E-01  0.000E+00  0.000E+00  0.000E+00  1.06158E+03  1.036E+00  6.145E+00  1.844E-02  1.518E+00
   1    5   10     4     1    1.0000E+01  9.0919E-02   9.9091E+00  0.000E+00  0.000E+00  0.000E+00  1.07836E+03  6.368E-01  1.000E+01  2.500E-02  1.212E+00
   1    5    9     4     2    9.9091E+00  1.8158E-01   9.7275E+00  0.000E+00  0.000E+00  0.000E+00  1.07154E+03  6.315E-01  1.000E+01  5.000E-02  1.211E+00
   1    6    8     4     3    9.7275E+00  1.2689E-01   9.6006E+00  0.000E+00  0.000E+00  0.000E+00  1.06381E+03  6.256E-01  1.000E+01  3.500E-02  1.209E+00
   1    6    8     5     1    1.0432E+01  2.2686E-01   1.0205E+01  0.000E+00  0.000E+00  0.000E+00  1.05868E+03  6.790E-01  1.542E+01  6.166E-02  1.226E+00
   1    7    7     5     2    1.0205E+01  2.7894E-01   9.9265E+00  0.000E+00  0.000E+00  0.000E+00  1.05417E+03  6.732E-01  1.519E+01  7.594E-02  1.224E+00
   1    8    7     5     3    9.9265E+00  1.9221E-01   9.7343E+00  0.000E+00  0.000E+00  0.000E+00  1.04992E+03  6.676E-01  1.497E+01  5.241E-02  1.223E+00
   1    8    6     5     4    9.7343E+00  1.3577E-01   9.5985E+00  0.000E+00  0.000E+00  0.000E+00  1.04691E+03  6.637E-01  1.482E+01  3.706E-02  1.221E+00
   1    9    6     6     1    2.1173E+01  2.4608E-01   2.0927E+01  0.000E+00  0.000E+00  0.000E+00  1.04383E+03  1.101E+00  1.200E+01  6.000E-02  1.367E+00
   1   10    7     6     2    2.0927E+01  2.4562E-01   2.0682E+01  0.000E+00  0.000E+00  0.000E+00  1.03928E+03  1.094E+00  1.200E+01  6.000E-02  1.365E+00
   1   11    7     6     3    2.0682E+01  2.4515E-01   2.0437E+01  0.000E+00  0.000E+00  0.000E+00  1.03472E+03  1.086E+00  1.200E+01  6.000E-02  1.362E+00
   1   12    7     6     4    2.0437E+01  2.4468E-01   2.0192E+01  0.000E+00  0.000E+00  0.000E+00  1.03017E+03  1.078E+00  1.200E+01  6.000E-02  1.359E+00
   1   13    7     6     5    2.0192E+01  1.2108E-02   2.0180E+01  0.000E+00  0.000E+00  0.000E+00  1.02698E+03  1.074E+00  1.200E+01  2.400E-02  1.682E-01
   1   14    9     7     1    1.5000E+02  1.3935E+00   1.4861E+02  0.000E+00  0.000E+00  0.000E+00  1.03987E+03  2.288E+00  5.529E+01  5.593E-01  8.305E-01
   1   13    8     7     2    1.4861E+02  2.0268E+00   1.4658E+02  0.000E+00  0.000E+00  0.000E+00  1.03478E+03  2.278E+00  5.525E+01  6.147E-01  1.099E+00
   1   13    7     7     3    1.4658E+02  1.7918E+00   1.4479E+02  0.000E+00  0.000E+00  0.000E+00  1.02969E+03  2.268E+00  5.521E+01  5.583E-01  1.070E+00
   1   13    6     8     1    1.6497E+02  1.1983E+00   1.6377E+02  0.000E+00  0.000E+00  0.000E+00  1.02479E+03  2.915E+00  4.227E+01  4.307E-01  9.273E-01
   1   13    5     8     2    1.6377E+02  4.2499E-01   1.6334E+02  0.000E+00  0.000E+00  0.000E+00  1.01853E+03  2.910E+00  4.219E+01  4.299E-01  3.295E-01
   1   13    4     8     3    1.6334E+02 -1.6134E+00   1.6496E+02  0.000E+00  0.000E+00  0.000E+00  1.01229E+03  2.914E+00  4.225E+01  4.305E+00 -1.249E-01
   1   13    3     8     4    1.6496E+02 -3.2240E+00   1.6818E+02  0.000E+00  0.000E+00  0.000E+00  1.00605E+03  2.930E+00  4.248E+01  4.329E+00 -2.483E-01
   1   13    2     8     5    1.6818E+02 -2.4499E+00   1.7063E+02  0.000E+00  0.000E+00  0.000E+00  9.99823E+02  2.948E+00  4.275E+01  4.356E+00 -1.875E-01
   1   13    1     8     6    1.7063E+02 -1.9287E+00   1.7256E+02  0.000E+00  0.000E+00  0.000E+00  9.94838E+02  2.963E+00  4.296E+01  2.626E+00 -2.448E-01
   1    8    6     9     1    0.0000E+00  0.0000E+00   0.0000E+00  0.000E+00  0.000E+00  0.000E+00  1.07875E+03  0.000E+00  4.000E+00  0.000E+00  1.000E+00
   1    8    5     9     2    0.0000E+00  0.0000E+00   0.0000E+00  0.000E+00  0.000E+00  0.000E+00  1.07825E+03  0.000E+00  4.000E+00  0.000E+00  1.000E+00





UNSATURATED ZONE PACKAGE VOLUMETRIC BUDGET FOR  TIME STEP    30 STRESS PERIOD   27
  ------------------------------------------------------------------------------



     CUMULATIVE VOLUMES      L**3       RATES FOR THIS TIME STEP      L**3/T
     ------------------                 ------------------------

           IN:                                      IN:
           ---                                      ---
        INFILTRATION =  4264687948.4691          INFILTRATION =           0.8475

          OUT:                                     OUT:
          ----                                     ----
              UZF ET =   866826780.7604                UZF ET =           0.7500
        UZF RECHARGE =  3020037842.5488          UZF RECHARGE =       0.0000E+00

            IN - OUT =   377823325.1598              IN - OUT =       9.7500E-02

          STORAGE:                                 STORAGE:
          --------                                 --------
      STORAGE CHANGE =   377869205.0781        STORAGE CHANGE =       9.7500E-02

 PERCENT DISCREPANCY IS DIFFERENCE BETWEEN IN-OUT MINUS CHANGE IN STORAGE
 DIVIDED BY THE AVERAGE OF IN AND OUT TIMES 100

 PERCENT DISCREPANCY =          -0.00     PERCENT DISCREPANCY =           0.00






1
  VOLUMETRIC BUDGET FOR AGRICULTURAL FIELDS AT  END OF TIME STEP   30, STRESS PERIOD  27
  ------------------------------------------------------------------------------

     CUMULATIVE VOLUMES      L**3       RATES FOR THIS TIME STEP      L**3/T
     ------------------                 ------------------------

           IN:                                      IN:
           ---                                      ---
               AG WELLS  =  3700675072.0000                 AG WELLS  =           0.0000
      DIVERSION SEGMENTS =   505989536.0000        DIVERSION SEGMENTS =           0.0000
           GW IRRIGATION =           0.0000             GW IRRIGATION =           0.0000
           SW IRRIGATION =           0.0000             SW IRRIGATION =           0.0000
        SYSTEM LOSSES GW =           0.0000          SYSTEM LOSSES GW =           0.0000
        SYSTEM LOSSES SW =           0.0000          SYSTEM LOSSES SW =           0.0000

                TOTAL IN =  4206664704.0000                  TOTAL IN =           0.0000

          OUT:                                     OUT:
          ----                                     ----
               AG WELLS  =           0.0000                 AG WELLS  =           0.0000
      DIVERSION SEGMENTS =           0.0000        DIVERSION SEGMENTS =           0.0000
           GW IRRIGATION =  3700675072.0000             GW IRRIGATION =           0.0000
           SW IRRIGATION =   505998912.0000             SW IRRIGATION =           0.0000
        SYSTEM LOSSES GW =           0.0000          SYSTEM LOSSES GW =           0.0000
        SYSTEM LOSSES SW =           0.0000          SYSTEM LOSSES SW =           0.0000

               TOTAL OUT =  4206673920.0000                 TOTAL OUT =           0.0000

                IN - OUT =       -9216.0000                  IN - OUT =           0.0000

     PERCENT DISCREPANCY =          -0.00         PERCENT DISCREPANCY =           0.00



1
  VOLUMETRIC BUDGET FOR ENTIRE MODEL AT END OF TIME STEP   30, STRESS PERIOD  27
  ------------------------------------------------------------------------------

     CUMULATIVE VOLUMES      L**3       RATES FOR THIS TIME STEP      L**3/T
     ------------------                 ------------------------

           IN:                                      IN:
           ---                                      ---
             STORAGE     =  3664323328.0000               STORAGE     =           1.5450
       CONSTANT HEAD     =           0.0000         CONSTANT HEAD     =           0.0000
     HEAD DEP BOUNDS     =    19746848.0000       HEAD DEP BOUNDS     =           0.2897
      STREAM LEAKAGE     =   814824576.0000        STREAM LEAKAGE     =          12.4050
        UZF RECHARGE     =  3020038656.0000          UZF RECHARGE     =           0.0000
               GW ET     =           0.0000                 GW ET     =           0.0000
     SURFACE LEAKAGE     =           0.0000       SURFACE LEAKAGE     =           0.0000
           AG WELLS      =           0.0000             AG WELLS      =           0.0000

                TOTAL IN =  7518933504.0000                  TOTAL IN =          14.2396

          OUT:                                     OUT:
          ----                                     ----
             STORAGE     =  3125251072.0000               STORAGE     =           4.7368
       CONSTANT HEAD     =           0.0000         CONSTANT HEAD     =           0.0000
     HEAD DEP BOUNDS     =    19671738.0000       HEAD DEP BOUNDS     =           0.2877
      STREAM LEAKAGE     =   673270464.0000        STREAM LEAKAGE     =           9.2160
        UZF RECHARGE     =           0.0000          UZF RECHARGE     =           0.0000
               GW ET     =           0.0000                 GW ET     =           0.0000
     SURFACE LEAKAGE     =           0.0000       SURFACE LEAKAGE     =           0.0000
           AG WELLS      =  3700675072.0000             AG WELLS      =           0.0000

               TOTAL OUT =  7518868480.0000                 TOTAL OUT =          14.2406

                IN - OUT =       65024.0000                  IN - OUT =      -9.0885E-04

     PERCENT DISCREPANCY =           0.00         PERCENT DISCREPANCY =          -0.01






         TIME SUMMARY AT END OF TIME STEP   30 IN STRESS PERIOD   27
                    SECONDS     MINUTES      HOURS       DAYS        YEARS
                    -----------------------------------------------------------
   TIME STEP LENGTH  87667.      1461.1      24.352      1.0147     2.77799E-03
 STRESS PERIOD TIME 2.63000E+06  43833.      730.56      30.440     8.33397E-02
         TOTAL TIME 6.84668E+07 1.14111E+06  19019.      792.44      2.1696    
1
1
                            STRESS PERIOD NO.   28, LENGTH =   2630000.    
                            -----------------------------------------------

                              NUMBER OF TIME STEPS =    30

                               MULTIPLIER FOR DELT =     1.000

                            INITIAL TIME STEP SIZE =   87666.66    

 REUSING NON-PARAMETER GHB CELLS FROM LAST STRESS PERIOD

      2 GHB CELLS

 REUSING STREAM SEGMENT DATA FROM LAST STRESS PERIOD



            AREAL INFILTRATION RATE
 READING ON UNIT   19 WITH FORMAT: (FREE)              

            1           2           3           4           5           6           7           8           9          10
 ........................................................................................................................
   1   1.0000E-10  2.0000E-10   0.000       0.000       0.000       0.000       0.000       0.000       0.000       0.000    
   2   2.0000E-10  1.0000E-10  2.0000E-10   0.000       0.000      8.0000E-10  8.0000E-10  5.0000E-10   0.000       0.000    
   3    0.000      5.0000E-10  1.0000E-10  1.0000E-10  8.0000E-10  8.0000E-10  5.0000E-10  5.0000E-10   0.000       0.000    
   4   8.0000E-10  5.0000E-10  1.0000E-10  1.0000E-10  1.0000E-10  1.0000E-10  1.0000E-10  1.0000E-10  2.0000E-10   0.000    
   5   8.0000E-10  5.0000E-10  1.0000E-10  1.0000E-10  1.0000E-10  1.0000E-10  1.0000E-10  1.0000E-10  1.0000E-10  1.0000E-10
   6   8.0000E-10  5.0000E-10  5.0000E-10  2.0000E-10  2.0000E-10  1.0000E-10  1.0000E-10  1.0000E-10  1.0000E-10  5.0000E-10
   7   8.0000E-10  5.0000E-10  5.0000E-10  2.0000E-10  2.0000E-10  1.0000E-10  1.0000E-10  2.0000E-10  2.0000E-10   0.000    
   8    0.000      5.0000E-10  5.0000E-10  2.0000E-10  2.0000E-10  1.0000E-10  1.0000E-10  2.0000E-10  5.0000E-10   0.000    
   9    0.000      5.0000E-10  5.0000E-10  2.0000E-10  2.0000E-10  1.0000E-10  1.0000E-10  2.0000E-10  5.0000E-10   0.000    
  10    0.000      5.0000E-10  5.0000E-10  2.0000E-10  2.0000E-10  1.0000E-10  1.0000E-10  2.0000E-10  5.0000E-10  8.0000E-10
  11    0.000      1.0000E-10  1.0000E-10  1.0000E-10  1.0000E-10  1.0000E-10  1.0000E-10  2.0000E-10  5.0000E-10   0.000    
  12   1.0000E-10  1.0000E-10  1.0000E-10  1.0000E-10  1.0000E-10  1.0000E-10  1.0000E-10  1.0000E-10  2.0000E-10   0.000    
  13   1.0000E-10  1.0000E-10  2.0000E-10  2.0000E-10  2.0000E-10  2.0000E-10  2.0000E-10  1.0000E-10  1.0000E-10   0.000    
  14    0.000      2.0000E-10  5.0000E-10  5.0000E-10  5.0000E-10  5.0000E-10  5.0000E-10  2.0000E-10  1.0000E-10   0.000    
  15    0.000       0.000      8.0000E-10  8.0000E-10  8.0000E-10  8.0000E-10   0.000       0.000       0.000       0.000    

                  ET RATE =  5.000000E-10

 USING ET EXTINCTION DEPTH FROM PREVIOUS STRESS PERIOD. CURRENT PERIOD IS:      28

 USING EXTINCTION WATER CONTENT FROM PREVIOUS STRESS PERIOD. CURRENT PERIOD IS:      28

 USING AIR ENTRY PRESSURE FROM PREVIOUS STRESS PERIOD. CURRENT PERIOD IS:      28

 USING ROOT PRESSURE HEAD FROM PREVIOUS STRESS PERIOD. CURRENT PERIOD IS:      28

 USING ROOT ACTIVITY FROM PREVIOUS STRESS PERIOD. CURRENT PERIOD IS:      28

 PROCESSING AG STRESS PERIOD DATA

 READING AG STRESS PERIOD DATA

 READING IRRIGATION SEGMENT

 READING IRRIGATION WELL

 READING SUPPLEMENTAL WELL

 END PROCESSING AG STRESS PERIOD DATA OPTIONS
 
 SOLVING FOR HEAD 
                                                   Max.-Head-Change                         Max.-Flux-Residual
  Residual-Control   Outer-Iter.   Inner-Iter.     Column Row Layer    Maximum-Head-Change  Column Row Layer    Maximum-Flux-Residual          L2-NORM 
          0                 1           2             4    3     1       0.3845769088E-02       4   13    1         0.2118591759E+00      0.8800926155E+00
          0                 2           2             4    3     1      -0.3740887841E-03       4   13    1        -0.2095809993E-01      0.8759265725E-01
          0                 3           1             4    3     1       0.2547407697E-04       4   13    1         0.1445668116E-02      0.6093555664E-02

    ------------------------------------------------
       NWT REQUIRED            3 OUTER ITERATIONS 
       AND A TOTAL OF          5 INNER ITERATIONS.
    ------------------------------------------------

 NO OUTPUT CONTROL FOR STRESS PERIOD   28   TIME STEP    1
 
 SOLVING FOR HEAD 
                                                   Max.-Head-Change                         Max.-Flux-Residual
  Residual-Control   Outer-Iter.   Inner-Iter.     Column Row Layer    Maximum-Head-Change  Column Row Layer    Maximum-Flux-Residual          L2-NORM 
          0                 1           2             4   13     1       0.5444901460E-02       4   13    1         0.3112145225E+00      0.9863106366E+00
          0                 2           2             4   13     1      -0.5238436960E-03       4   13    1        -0.3078385512E-01      0.9780978559E-01
          0                 3           1             4   13     1       0.3513332096E-04       4   13    1         0.2122629518E-02      0.6770765965E-02

    ------------------------------------------------
       NWT REQUIRED            3 OUTER ITERATIONS 
       AND A TOTAL OF          5 INNER ITERATIONS.
    ------------------------------------------------

 NO OUTPUT CONTROL FOR STRESS PERIOD   28   TIME STEP    2
 
 SOLVING FOR HEAD 
                                                   Max.-Head-Change                         Max.-Flux-Residual
  Residual-Control   Outer-Iter.   Inner-Iter.     Column Row Layer    Maximum-Head-Change  Column Row Layer    Maximum-Flux-Residual          L2-NORM 
          0                 1           2             4   13     1       0.4956188166E-02       4   13    1         0.2830343574E+00      0.9615088763E+00
          0                 2           2             4   13     1      -0.4767887575E-03       4   13    1        -0.2799400239E-01      0.9543163064E-01
          0                 3           1             4   13     1       0.3196935764E-04       4   13    1         0.1929739179E-02      0.6614777996E-02

    ------------------------------------------------
       NWT REQUIRED            3 OUTER ITERATIONS 
       AND A TOTAL OF          5 INNER ITERATIONS.
    ------------------------------------------------

 NO OUTPUT CONTROL FOR STRESS PERIOD   28   TIME STEP    3
 
 SOLVING FOR HEAD 
                                                   Max.-Head-Change                         Max.-Flux-Residual
  Residual-Control   Outer-Iter.   Inner-Iter.     Column Row Layer    Maximum-Head-Change  Column Row Layer    Maximum-Flux-Residual          L2-NORM 
          0                 1           2             4   13     1       0.4515433951E-02       4   13    1         0.2576283494E+00      0.9395097368E+00
          0                 2           2             4   13     1      -0.4343407430E-03       4   13    1        -0.2547813601E-01      0.9332169340E-01
          0                 3           1             4   13     1       0.2912380413E-04       4   13    1         0.1756330176E-02      0.6475097216E-02

    ------------------------------------------------
       NWT REQUIRED            3 OUTER ITERATIONS 
       AND A TOTAL OF          5 INNER ITERATIONS.
    ------------------------------------------------

 NO OUTPUT CONTROL FOR STRESS PERIOD   28   TIME STEP    4
 
 SOLVING FOR HEAD 
                                                   Max.-Head-Change                         Max.-Flux-Residual
  Residual-Control   Outer-Iter.   Inner-Iter.     Column Row Layer    Maximum-Head-Change  Column Row Layer    Maximum-Flux-Residual          L2-NORM 
          0                 1           2             4    3     1       0.4226762390E-02       4   13    1         0.2347174662E+00      0.9199432111E+00
          0                 2           2             4    3     1      -0.4111491251E-03       4   13    1        -0.2321000540E-01      0.9144288201E-01
          0                 3           1             4    3     1       0.2799775010E-04       4   13    1         0.1600420055E-02      0.6350949304E-02

    ------------------------------------------------
       NWT REQUIRED            3 OUTER ITERATIONS 
       AND A TOTAL OF          5 INNER ITERATIONS.
    ------------------------------------------------

 NO OUTPUT CONTROL FOR STRESS PERIOD   28   TIME STEP    5
 
 SOLVING FOR HEAD 
                                                   Max.-Head-Change                         Max.-Flux-Residual
  Residual-Control   Outer-Iter.   Inner-Iter.     Column Row Layer    Maximum-Head-Change  Column Row Layer    Maximum-Flux-Residual          L2-NORM 
          0                 1           2             4    3     1       0.4191419322E-02       4    3    1         0.2195378322E+00      0.9025083514E+00
          0                 2           2             4    3     1      -0.4077111973E-03       4    3    1        -0.2195381008E-01      0.8976886974E-01
          0                 3           1             4    3     1       0.2776364023E-04       4    3    1         0.1536767106E-02      0.6239908917E-02

    ------------------------------------------------
       NWT REQUIRED            3 OUTER ITERATIONS 
       AND A TOTAL OF          5 INNER ITERATIONS.
    ------------------------------------------------

 NO OUTPUT CONTROL FOR STRESS PERIOD   28   TIME STEP    6
 
 SOLVING FOR HEAD 
                                                   Max.-Head-Change                         Max.-Flux-Residual
  Residual-Control   Outer-Iter.   Inner-Iter.     Column Row Layer    Maximum-Head-Change  Column Row Layer    Maximum-Flux-Residual          L2-NORM 
          0                 1           2             4    3     1       0.4156723025E-02       4    3    1         0.2176933422E+00      0.8869185194E+00
          0                 2           2             4    3     1      -0.4043361836E-03       4    3    1        -0.2176936035E-01      0.8827017643E-01
          0                 3           1             4    3     1       0.2753381534E-04       4    3    1         0.1523855651E-02      0.6140505048E-02

    ------------------------------------------------
       NWT REQUIRED            3 OUTER ITERATIONS 
       AND A TOTAL OF          5 INNER ITERATIONS.
    ------------------------------------------------

 NO OUTPUT CONTROL FOR STRESS PERIOD   28   TIME STEP    7
 
 SOLVING FOR HEAD 
                                                   Max.-Head-Change                         Max.-Flux-Residual
  Residual-Control   Outer-Iter.   Inner-Iter.     Column Row Layer    Maximum-Head-Change  Column Row Layer    Maximum-Flux-Residual          L2-NORM 
          0                 1           2             4    3     1       0.4122873323E-02       4    3    1         0.2158943812E+00      0.8729414183E+00
          0                 2           2             4    3     1      -0.4010435208E-03       4    3    1        -0.2158946359E-01      0.8692555378E-01
          0                 3           1             4    3     1       0.2730959771E-04       4    3    1         0.1511262871E-02      0.6050911265E-02

    ------------------------------------------------
       NWT REQUIRED            3 OUTER ITERATIONS 
       AND A TOTAL OF          5 INNER ITERATIONS.
    ------------------------------------------------

 NO OUTPUT CONTROL FOR STRESS PERIOD   28   TIME STEP    8
 
 SOLVING FOR HEAD 
                                                   Max.-Head-Change                         Max.-Flux-Residual
  Residual-Control   Outer-Iter.   Inner-Iter.     Column Row Layer    Maximum-Head-Change  Column Row Layer    Maximum-Flux-Residual          L2-NORM 
          0                 1           2             4    3     1       0.4089831953E-02       4    3    1         0.2141393151E+00      0.8603598184E+00
          0                 2           2             4    3     1      -0.3978294871E-03       4    3    1        -0.2141395631E-01      0.8573004348E-01
          0                 3           1             4    3     1       0.2709073457E-04       4    3    1         0.1498977373E-02      0.5971927095E-02

    ------------------------------------------------
       NWT REQUIRED            3 OUTER ITERATIONS 
       AND A TOTAL OF          5 INNER ITERATIONS.
    ------------------------------------------------

 NO OUTPUT CONTROL FOR STRESS PERIOD   28   TIME STEP    9
 
 SOLVING FOR HEAD 
                                                   Max.-Head-Change                         Max.-Flux-Residual
  Residual-Control   Outer-Iter.   Inner-Iter.     Column Row Layer    Maximum-Head-Change  Column Row Layer    Maximum-Flux-Residual          L2-NORM 
          0                 1           2             4    3     1       0.4057345156E-02       4    3    1         0.2124141642E+00      0.8489796349E+00
          0                 2           2             4    3     1      -0.3946693983E-03       4    3    1        -0.2124144061E-01      0.8461613617E-01
          0                 3           1             4    3     1       0.2687554461E-04       4    3    1         0.1486901252E-02      0.5897353621E-02

    ------------------------------------------------
       NWT REQUIRED            3 OUTER ITERATIONS 
       AND A TOTAL OF          5 INNER ITERATIONS.
    ------------------------------------------------

 NO OUTPUT CONTROL FOR STRESS PERIOD   28   TIME STEP   10
 
 SOLVING FOR HEAD 
                                                   Max.-Head-Change                         Max.-Flux-Residual
  Residual-Control   Outer-Iter.   Inner-Iter.     Column Row Layer    Maximum-Head-Change  Column Row Layer    Maximum-Flux-Residual          L2-NORM 
          0                 1           2             4    3     1       0.4025614066E-02       4    3    1         0.2107297626E+00      0.8386580047E+00
          0                 2           2             4    3     1      -0.3915828198E-03       4    3    1        -0.2107299985E-01      0.8361955203E-01
          0                 3           1             4    3     1       0.2666536052E-04       4    3    1         0.1475110392E-02      0.5831098640E-02

    ------------------------------------------------
       NWT REQUIRED            3 OUTER ITERATIONS 
       AND A TOTAL OF          5 INNER ITERATIONS.
    ------------------------------------------------

 NO OUTPUT CONTROL FOR STRESS PERIOD   28   TIME STEP   11
 
 SOLVING FOR HEAD 
                                                   Max.-Head-Change                         Max.-Flux-Residual
  Residual-Control   Outer-Iter.   Inner-Iter.     Column Row Layer    Maximum-Head-Change  Column Row Layer    Maximum-Flux-Residual          L2-NORM 
          0                 1           2             4    3     1       0.3994606524E-02       4    3    1         0.2090845434E+00      0.8292601820E+00
          0                 2           2             4    3     1      -0.3885666230E-03       4    3    1        -0.2090847735E-01      0.8271031790E-01
          0                 3           1             4    3     1       0.2645996906E-04       4    3    1         0.1463593821E-02      0.5770136850E-02

    ------------------------------------------------
       NWT REQUIRED            3 OUTER ITERATIONS 
       AND A TOTAL OF          5 INNER ITERATIONS.
    ------------------------------------------------

 NO OUTPUT CONTROL FOR STRESS PERIOD   28   TIME STEP   12
 
 SOLVING FOR HEAD 
                                                   Max.-Head-Change                         Max.-Flux-Residual
  Residual-Control   Outer-Iter.   Inner-Iter.     Column Row Layer    Maximum-Head-Change  Column Row Layer    Maximum-Flux-Residual          L2-NORM 
          0                 1           2             4    3     1       0.3964293874E-02       4    3    1         0.2074768391E+00      0.8206653173E+00
          0                 2           2             4    3     1      -0.3856180207E-03       4    3    1        -0.2074770637E-01      0.8187721220E-01
          0                 3           1             4    3     1       0.2625918114E-04       4    3    1         0.1452339854E-02      0.5714062499E-02

    ------------------------------------------------
       NWT REQUIRED            3 OUTER ITERATIONS 
       AND A TOTAL OF          5 INNER ITERATIONS.
    ------------------------------------------------

 NO OUTPUT CONTROL FOR STRESS PERIOD   28   TIME STEP   13
 
 SOLVING FOR HEAD 
                                                   Max.-Head-Change                         Max.-Flux-Residual
  Residual-Control   Outer-Iter.   Inner-Iter.     Column Row Layer    Maximum-Head-Change  Column Row Layer    Maximum-Flux-Residual          L2-NORM 
          0                 1           2             4    3     1       0.3934430318E-02       4    3    1         0.2058931680E+00      0.8127692361E+00
          0                 2           2             4    3     1      -0.3827131033E-03       4    3    1        -0.2058933871E-01      0.8111091356E-01
          0                 3           1             4    3     1       0.2606136749E-04       4    3    1         0.1441254133E-02      0.5662297152E-02

    ------------------------------------------------
       NWT REQUIRED            3 OUTER ITERATIONS 
       AND A TOTAL OF          5 INNER ITERATIONS.
    ------------------------------------------------

 NO OUTPUT CONTROL FOR STRESS PERIOD   28   TIME STEP   14
 
 SOLVING FOR HEAD 
                                                   Max.-Head-Change                         Max.-Flux-Residual
  Residual-Control   Outer-Iter.   Inner-Iter.     Column Row Layer    Maximum-Head-Change  Column Row Layer    Maximum-Flux-Residual          L2-NORM 
          0                 1           2             4    3     1       0.3905442638E-02       4    3    1         0.2043567738E+00      0.8054877181E+00
          0                 2           2             4    3     1      -0.3798933853E-03       4    3    1        -0.2043569880E-01      0.8040340492E-01
          0                 3           1             4    3     1       0.2586935517E-04       4    3    1         0.1430499332E-02      0.5615053802E-02

    ------------------------------------------------
       NWT REQUIRED            3 OUTER ITERATIONS 
       AND A TOTAL OF          5 INNER ITERATIONS.
    ------------------------------------------------

 NO OUTPUT CONTROL FOR STRESS PERIOD   28   TIME STEP   15
 
 SOLVING FOR HEAD 
                                                   Max.-Head-Change                         Max.-Flux-Residual
  Residual-Control   Outer-Iter.   Inner-Iter.     Column Row Layer    Maximum-Head-Change  Column Row Layer    Maximum-Flux-Residual          L2-NORM 
          0                 1           2             4    3     1       0.3876851382E-02       4    3    1         0.2028418003E+00      0.7987508533E+00
          0                 2           2             4    3     1      -0.3771122284E-03       4    3    1        -0.2028420094E-01      0.7974690730E-01
          0                 3           1             4    3     1       0.2567996946E-04       4    3    1         0.1419894483E-02      0.5570481164E-02

    ------------------------------------------------
       NWT REQUIRED            3 OUTER ITERATIONS 
       AND A TOTAL OF          5 INNER ITERATIONS.
    ------------------------------------------------

 NO OUTPUT CONTROL FOR STRESS PERIOD   28   TIME STEP   16
 
 SOLVING FOR HEAD 
                                                   Max.-Head-Change                         Max.-Flux-Residual
  Residual-Control   Outer-Iter.   Inner-Iter.     Column Row Layer    Maximum-Head-Change  Column Row Layer    Maximum-Flux-Residual          L2-NORM 
          0                 1           2             4    3     1       0.3848866057E-02       4    3    1         0.2013593771E+00      0.7924792127E+00
          0                 2           2             4    3     1      -0.3743900124E-03       4    3    1        -0.2013595814E-01      0.7913532779E-01
          0                 3           1             4    3     1       0.2549459725E-04       4    3    1         0.1409517494E-02      0.5529082015E-02

    ------------------------------------------------
       NWT REQUIRED            3 OUTER ITERATIONS 
       AND A TOTAL OF          5 INNER ITERATIONS.
    ------------------------------------------------

 NO OUTPUT CONTROL FOR STRESS PERIOD   28   TIME STEP   17
 
 SOLVING FOR HEAD 
                                                   Max.-Head-Change                         Max.-Flux-Residual
  Residual-Control   Outer-Iter.   Inner-Iter.     Column Row Layer    Maximum-Head-Change  Column Row Layer    Maximum-Flux-Residual          L2-NORM 
          0                 1           2             4    3     1       0.3821242402E-02       4    3    1         0.1998963740E+00      0.7866310604E+00
          0                 2           2             4    3     1      -0.3717029778E-03       4    3    1        -0.1998965739E-01      0.7844258412E-01
          0                 3           1             4    3     1       0.2531162041E-04       4    3    1         0.1399276448E-02      0.5481573119E-02

    ------------------------------------------------
       NWT REQUIRED            3 OUTER ITERATIONS 
       AND A TOTAL OF          5 INNER ITERATIONS.
    ------------------------------------------------

 NO OUTPUT CONTROL FOR STRESS PERIOD   28   TIME STEP   18
 
 SOLVING FOR HEAD 
                                                   Max.-Head-Change                         Max.-Flux-Residual
  Residual-Control   Outer-Iter.   Inner-Iter.     Column Row Layer    Maximum-Head-Change  Column Row Layer    Maximum-Flux-Residual          L2-NORM 
          0                 1           2             4    3     1       0.3794416042E-02       4    3    1         0.1984761161E+00      0.7815881039E+00
          0                 2           2             4    3     1      -0.3690934980E-03       4    3    1        -0.1984763115E-01      0.7806920235E-01
          0                 3           1             4    3     1       0.2513392493E-04       4    3    1         0.1389334600E-02      0.5459625549E-02

    ------------------------------------------------
       NWT REQUIRED            3 OUTER ITERATIONS 
       AND A TOTAL OF          5 INNER ITERATIONS.
    ------------------------------------------------

 NO OUTPUT CONTROL FOR STRESS PERIOD   28   TIME STEP   19
 
 SOLVING FOR HEAD 
                                                   Max.-Head-Change                         Max.-Flux-Residual
  Residual-Control   Outer-Iter.   Inner-Iter.     Column Row Layer    Maximum-Head-Change  Column Row Layer    Maximum-Flux-Residual          L2-NORM 
          0                 1           2             4    3     1       0.3767910475E-02       4    3    1         0.1970732036E+00      0.7764473768E+00
          0                 2           2             4    3     1      -0.3665152227E-03       4    3    1        -0.1970733948E-01      0.7756618989E-01
          0                 3           1             4    3     1       0.2495835431E-04       4    3    1         0.1379514168E-02      0.5425520977E-02

    ------------------------------------------------
       NWT REQUIRED            3 OUTER ITERATIONS 
       AND A TOTAL OF          5 INNER ITERATIONS.
    ------------------------------------------------

 NO OUTPUT CONTROL FOR STRESS PERIOD   28   TIME STEP   20
 
 SOLVING FOR HEAD 
                                                   Max.-Head-Change                         Max.-Flux-Residual
  Residual-Control   Outer-Iter.   Inner-Iter.     Column Row Layer    Maximum-Head-Change  Column Row Layer    Maximum-Flux-Residual          L2-NORM 
          0                 1           2             4    3     1       0.3741937342E-02       4    3    1         0.1956989204E+00      0.7716064392E+00
          0                 2           2             4    3     1      -0.3639887392E-03       4    3    1        -0.1956991076E-01      0.7709178697E-01
          0                 3           1             4    3     1       0.2478631059E-04       4    3    1         0.1369894175E-02      0.5392870148E-02

    ------------------------------------------------
       NWT REQUIRED            3 OUTER ITERATIONS 
       AND A TOTAL OF          5 INNER ITERATIONS.
    ------------------------------------------------

 NO OUTPUT CONTROL FOR STRESS PERIOD   28   TIME STEP   21
 
 SOLVING FOR HEAD 
                                                   Max.-Head-Change                         Max.-Flux-Residual
  Residual-Control   Outer-Iter.   Inner-Iter.     Column Row Layer    Maximum-Head-Change  Column Row Layer    Maximum-Flux-Residual          L2-NORM 
          0                 1           2             4    3     1       0.3716477876E-02       4    3    1         0.1943522432E+00      0.7670202194E+00
          0                 2           2             4    3     1      -0.3615122192E-03       4    3    1        -0.1943524264E-01      0.7664145338E-01
          0                 3           1             4    3     1       0.2461766645E-04       4    3    1         0.1360467401E-02      0.5362012779E-02

    ------------------------------------------------
       NWT REQUIRED            3 OUTER ITERATIONS 
       AND A TOTAL OF          5 INNER ITERATIONS.
    ------------------------------------------------

 NO OUTPUT CONTROL FOR STRESS PERIOD   28   TIME STEP   22
 
 SOLVING FOR HEAD 
                                                   Max.-Head-Change                         Max.-Flux-Residual
  Residual-Control   Outer-Iter.   Inner-Iter.     Column Row Layer    Maximum-Head-Change  Column Row Layer    Maximum-Flux-Residual          L2-NORM 
          0                 1           2             4    3     1       0.3691516993E-02       4    3    1         0.1930321990E+00      0.7626689833E+00
          0                 2           2             4    3     1      -0.3590842917E-03       4    3    1        -0.1930323782E-01      0.7621392587E-01
          0                 3           1             4    3     1       0.2445233668E-04       4    3    1         0.1351227065E-02      0.5332764095E-02

    ------------------------------------------------
       NWT REQUIRED            3 OUTER ITERATIONS 
       AND A TOTAL OF          5 INNER ITERATIONS.
    ------------------------------------------------

 NO OUTPUT CONTROL FOR STRESS PERIOD   28   TIME STEP   23
 
 SOLVING FOR HEAD 
                                                   Max.-Head-Change                         Max.-Flux-Residual
  Residual-Control   Outer-Iter.   Inner-Iter.     Column Row Layer    Maximum-Head-Change  Column Row Layer    Maximum-Flux-Residual          L2-NORM 
          0                 1           2             4    3     1       0.3666812518E-02       4    3    1         0.1917260038E+00      0.7585228420E+00
          0                 2           2             4    3     1      -0.3566811250E-03       4    3    1        -0.1917261792E-01      0.7580593427E-01
          0                 3           1             4    3     1       0.2428868965E-04       4    3    1         0.1342083642E-02      0.5304696914E-02

    ------------------------------------------------
       NWT REQUIRED            3 OUTER ITERATIONS 
       AND A TOTAL OF          5 INNER ITERATIONS.
    ------------------------------------------------

 NO OUTPUT CONTROL FOR STRESS PERIOD   28   TIME STEP   24
 
 SOLVING FOR HEAD 
                                                   Max.-Head-Change                         Max.-Flux-Residual
  Residual-Control   Outer-Iter.   Inner-Iter.     Column Row Layer    Maximum-Head-Change  Column Row Layer    Maximum-Flux-Residual          L2-NORM 
          0                 1           2             4    3     1       0.3642805525E-02       4    3    1         0.1904571069E+00      0.7545674430E+00
          0                 2           2             4    3     1      -0.3543458944E-03       4    3    1        -0.1904572788E-01      0.7541602880E-01
          0                 3           1             4    3     1       0.2412966959E-04       4    3    1         0.1333201351E-02      0.5277650181E-02

    ------------------------------------------------
       NWT REQUIRED            3 OUTER ITERATIONS 
       AND A TOTAL OF          5 INNER ITERATIONS.
    ------------------------------------------------

 NO OUTPUT CONTROL FOR STRESS PERIOD   28   TIME STEP   25
 
 SOLVING FOR HEAD 
                                                   Max.-Head-Change                         Max.-Flux-Residual
  Residual-Control   Outer-Iter.   Inner-Iter.     Column Row Layer    Maximum-Head-Change  Column Row Layer    Maximum-Flux-Residual          L2-NORM 
          0                 1           2             4    3     1       0.3619027036E-02       4    3    1         0.1892003741E+00      0.7507840616E+00
          0                 2           2             4    3     1      -0.3520328909E-03       4    3    1        -0.1892005427E-01      0.7504279848E-01
          0                 3           1             4    3     1       0.2397216329E-04       4    3    1         0.1324404213E-02      0.5252105126E-02

    ------------------------------------------------
       NWT REQUIRED            3 OUTER ITERATIONS 
       AND A TOTAL OF          5 INNER ITERATIONS.
    ------------------------------------------------

 NO OUTPUT CONTROL FOR STRESS PERIOD   28   TIME STEP   26
 
 SOLVING FOR HEAD 
                                                   Max.-Head-Change                         Max.-Flux-Residual
  Residual-Control   Outer-Iter.   Inner-Iter.     Column Row Layer    Maximum-Head-Change  Column Row Layer    Maximum-Flux-Residual          L2-NORM 
          0                 1           2             4    3     1       0.3595693044E-02       4    3    1         0.1879674863E+00      0.7471536233E+00
          0                 2           2             4    3     1      -0.3497631244E-03       4    3    1        -0.1879676514E-01      0.7468409966E-01
          0                 3           1             4    3     1       0.2381760050E-04       4    3    1         0.1315773953E-02      0.5227275867E-02

    ------------------------------------------------
       NWT REQUIRED            3 OUTER ITERATIONS 
       AND A TOTAL OF          5 INNER ITERATIONS.
    ------------------------------------------------

 NO OUTPUT CONTROL FOR STRESS PERIOD   28   TIME STEP   27
 
 SOLVING FOR HEAD 
                                                   Max.-Head-Change                         Max.-Flux-Residual
  Residual-Control   Outer-Iter.   Inner-Iter.     Column Row Layer    Maximum-Head-Change  Column Row Layer    Maximum-Flux-Residual          L2-NORM 
          0                 1           2             4    3     1       0.3572787498E-02       4    3    1         0.1867576451E+00      0.7436629891E+00
          0                 2           2             4    3     1      -0.3475350352E-03       4    3    1        -0.1867578070E-01      0.7433892211E-01
          0                 3           1             4    3     1       0.2366587637E-04       4    3    1         0.1307305066E-02      0.5203563305E-02

    ------------------------------------------------
       NWT REQUIRED            3 OUTER ITERATIONS 
       AND A TOTAL OF          5 INNER ITERATIONS.
    ------------------------------------------------

 NO OUTPUT CONTROL FOR STRESS PERIOD   28   TIME STEP   28
 
 SOLVING FOR HEAD 
                                                   Max.-Head-Change                         Max.-Flux-Residual
  Residual-Control   Outer-Iter.   Inner-Iter.     Column Row Layer    Maximum-Head-Change  Column Row Layer    Maximum-Flux-Residual          L2-NORM 
          0                 1           2             4    3     1       0.3550073196E-02       4    3    1         0.1855580206E+00      0.7402991824E+00
          0                 2           2             4    3     1      -0.3453255484E-03       4    3    1        -0.1855581793E-01      0.7400610127E-01
          0                 3           1             4    3     1       0.2351541867E-04       4    3    1         0.1298907665E-02      0.5180555016E-02

    ------------------------------------------------
       NWT REQUIRED            3 OUTER ITERATIONS 
       AND A TOTAL OF          5 INNER ITERATIONS.
    ------------------------------------------------

 NO OUTPUT CONTROL FOR STRESS PERIOD   28   TIME STEP   29
 
 SOLVING FOR HEAD 
                                                   Max.-Head-Change                         Max.-Flux-Residual
  Residual-Control   Outer-Iter.   Inner-Iter.     Column Row Layer    Maximum-Head-Change  Column Row Layer    Maximum-Flux-Residual          L2-NORM 
          0                 1           2             4    3     1       0.3527994037E-02       4    3    1         0.1843923073E+00      0.7370630640E+00
          0                 2           2             4    3     1      -0.3431778439E-03       4    3    1        -0.1843924631E-01      0.7368546910E-01
          0                 3           1             4    3     1       0.2336916832E-04       4    3    1         0.1290747648E-02      0.5158268667E-02

    ------------------------------------------------
       NWT REQUIRED            3 OUTER ITERATIONS 
       AND A TOTAL OF          5 INNER ITERATIONS.
    ------------------------------------------------

 NO OUTPUT CONTROL FOR STRESS PERIOD   28   TIME STEP   30



 STREAM LISTING     PERIOD     28   STEP       30

 LAYER ROW COL. STREAM  RCH.  FLOW INTO     FLOW TO   FLOW OUT OF   OVRLND.     DIRECT     STREAM       STREAM     STREAM     STREAM   STREAMBED  STREAMBED
                SEG.NO.  NO.  STRM. RCH.    AQUIFER    STRM. RCH.    RUNOFF     PRECIP       ET          HEAD       DEPTH      WIDTH   CONDCTNC.   GRADIENT

   1    1    1     1     1    2.8874E+01  2.6239E-01   2.8612E+01  0.000E+00  0.000E+00  0.000E+00  1.09428E+03  1.233E+00  1.377E+01  6.198E-02  1.411E+00
   1    2    2     1     2    2.8612E+01  4.0592E-01   2.8206E+01  0.000E+00  0.000E+00  0.000E+00  1.08929E+03  1.229E+00  1.371E+01  9.599E-02  1.410E+00
   1    3    3     1     3    2.8206E+01  3.4575E-01   2.7860E+01  0.000E+00  0.000E+00  0.000E+00  1.08364E+03  1.224E+00  1.364E+01  8.186E-02  1.408E+00
   1    3    4     1     4    2.7860E+01  3.1803E-01   2.7542E+01  0.000E+00  0.000E+00  0.000E+00  1.07863E+03  1.219E+00  1.358E+01  7.538E-02  1.406E+00
   1    4    5     2     1    2.5542E+01  3.2904E-01   2.5213E+01  0.000E+00  0.000E+00  0.000E+00  1.07315E+03  1.218E+00  1.200E+01  7.800E-02  1.406E+00
   1    5    6     2     2    2.5213E+01  2.5260E-01   2.4960E+01  0.000E+00  0.000E+00  0.000E+00  1.06772E+03  1.210E+00  1.200E+01  6.000E-02  1.403E+00
   1    6    6     2     3    2.4960E+01  2.5217E-01   2.4708E+01  0.000E+00  0.000E+00  0.000E+00  1.06300E+03  1.203E+00  1.200E+01  6.000E-02  1.401E+00
   1    7    6     2     4    2.4708E+01  2.5172E-01   2.4457E+01  0.000E+00  0.000E+00  0.000E+00  1.05827E+03  1.195E+00  1.200E+01  6.000E-02  1.398E+00
   1    8    6     2     5    2.4457E+01  2.5128E-01   2.4205E+01  0.000E+00  0.000E+00  0.000E+00  1.05355E+03  1.188E+00  1.200E+01  6.000E-02  1.396E+00
   1    3    5     3     1    2.0000E+00  2.8252E-01   1.7175E+00  0.000E+00  0.000E+00  0.000E+00  1.07555E+03  1.909E+00  9.636E+00  7.227E-02  1.955E+00
   1    3    6     3     2    1.7175E+00  2.4905E-01   1.4684E+00  0.000E+00  0.000E+00  0.000E+00  1.07264E+03  1.727E+00  8.909E+00  6.682E-02  1.864E+00
   1    3    7     3     3    1.4684E+00  1.9718E-01   1.2712E+00  0.000E+00  0.000E+00  0.000E+00  1.06987E+03  1.555E+00  8.218E+00  5.547E-02  1.777E+00
   1    4    8     3     4    1.2712E+00  2.2567E-01   1.0456E+00  0.000E+00  0.000E+00  0.000E+00  1.06682E+03  1.364E+00  7.455E+00  6.709E-02  1.682E+00
   1    5    8     3     5    1.0456E+00  1.5790E-01   8.8768E-01  0.000E+00  0.000E+00  0.000E+00  1.06362E+03  1.164E+00  6.655E+00  4.991E-02  1.582E+00
   1    6    8     3     6    8.8768E-01  5.5980E-02   8.3170E-01  0.000E+00  0.000E+00  0.000E+00  1.06158E+03  1.036E+00  6.145E+00  1.844E-02  1.518E+00
   1    5   10     4     1    1.0000E+01  9.0919E-02   9.9091E+00  0.000E+00  0.000E+00  0.000E+00  1.07836E+03  6.368E-01  1.000E+01  2.500E-02  1.212E+00
   1    5    9     4     2    9.9091E+00  1.8158E-01   9.7275E+00  0.000E+00  0.000E+00  0.000E+00  1.07154E+03  6.315E-01  1.000E+01  5.000E-02  1.211E+00
   1    6    8     4     3    9.7275E+00  1.2689E-01   9.6006E+00  0.000E+00  0.000E+00  0.000E+00  1.06381E+03  6.256E-01  1.000E+01  3.500E-02  1.209E+00
   1    6    8     5     1    1.0432E+01  2.2686E-01   1.0205E+01  0.000E+00  0.000E+00  0.000E+00  1.05868E+03  6.790E-01  1.542E+01  6.166E-02  1.226E+00
   1    7    7     5     2    1.0205E+01  2.7894E-01   9.9265E+00  0.000E+00  0.000E+00  0.000E+00  1.05417E+03  6.732E-01  1.519E+01  7.594E-02  1.224E+00
   1    8    7     5     3    9.9265E+00  1.9221E-01   9.7343E+00  0.000E+00  0.000E+00  0.000E+00  1.04992E+03  6.676E-01  1.497E+01  5.241E-02  1.223E+00
   1    8    6     5     4    9.7343E+00  1.3577E-01   9.5985E+00  0.000E+00  0.000E+00  0.000E+00  1.04691E+03  6.637E-01  1.482E+01  3.706E-02  1.221E+00
   1    9    6     6     1    3.3804E+01  2.6759E-01   3.3536E+01  0.000E+00  0.000E+00  0.000E+00  1.04419E+03  1.460E+00  1.200E+01  6.000E-02  1.487E+00
   1   10    7     6     2    3.3536E+01  2.6717E-01   3.3269E+01  0.000E+00  0.000E+00  0.000E+00  1.03963E+03  1.453E+00  1.200E+01  6.000E-02  1.484E+00
   1   11    7     6     3    3.3269E+01  2.6676E-01   3.3002E+01  0.000E+00  0.000E+00  0.000E+00  1.03508E+03  1.446E+00  1.200E+01  6.000E-02  1.482E+00
   1   12    7     6     4    3.3002E+01  2.6634E-01   3.2736E+01  0.000E+00  0.000E+00  0.000E+00  1.03053E+03  1.439E+00  1.200E+01  6.000E-02  1.480E+00
   1   13    7     6     5    3.2736E+01  2.0547E-02   3.2715E+01  0.000E+00  0.000E+00  0.000E+00  1.02734E+03  1.435E+00  1.200E+01  2.400E-02  2.854E-01
   1   14    9     7     1    1.5000E+02  1.3952E+00   1.4860E+02  0.000E+00  0.000E+00  0.000E+00  1.03987E+03  2.288E+00  5.529E+01  5.593E-01  8.316E-01
   1   13    8     7     2    1.4860E+02  2.0287E+00   1.4658E+02  0.000E+00  0.000E+00  0.000E+00  1.03478E+03  2.278E+00  5.525E+01  6.147E-01  1.100E+00
   1   13    7     7     3    1.4658E+02  1.7864E+00   1.4479E+02  0.000E+00  0.000E+00  0.000E+00  1.02969E+03  2.268E+00  5.521E+01  5.583E-01  1.066E+00
   1   13    6     8     1    1.7751E+02  1.2518E+00   1.7625E+02  0.000E+00  0.000E+00  0.000E+00  1.02487E+03  2.996E+00  4.345E+01  4.428E-01  9.424E-01
   1   13    5     8     2    1.7625E+02  4.5486E-01   1.7580E+02  0.000E+00  0.000E+00  0.000E+00  1.01862E+03  2.991E+00  4.337E+01  4.420E-01  3.431E-01
   1   13    4     8     3    1.7580E+02 -1.5603E+00   1.7736E+02  0.000E+00  0.000E+00  0.000E+00  1.01237E+03  2.995E+00  4.342E+01  4.425E+00 -1.175E-01
   1   13    3     8     4    1.7736E+02 -3.1948E+00   1.8055E+02  0.000E+00  0.000E+00  0.000E+00  1.00613E+03  3.010E+00  4.364E+01  4.447E+00 -2.395E-01
   1   13    2     8     5    1.8055E+02 -2.4228E+00   1.8298E+02  0.000E+00  0.000E+00  0.000E+00  9.99902E+02  3.027E+00  4.389E+01  4.473E+00 -1.805E-01
   1   13    1     8     6    1.8298E+02 -1.9050E+00   1.8488E+02  0.000E+00  0.000E+00  0.000E+00  9.94916E+02  3.041E+00  4.409E+01  2.696E+00 -2.356E-01
   1    8    6     9     1    0.0000E+00  0.0000E+00   0.0000E+00  0.000E+00  0.000E+00  0.000E+00  1.07875E+03  0.000E+00  4.000E+00  0.000E+00  1.000E+00
   1    8    5     9     2    0.0000E+00  0.0000E+00   0.0000E+00  0.000E+00  0.000E+00  0.000E+00  1.07825E+03  0.000E+00  4.000E+00  0.000E+00  1.000E+00





UNSATURATED ZONE PACKAGE VOLUMETRIC BUDGET FOR  TIME STEP    30 STRESS PERIOD   28
  ------------------------------------------------------------------------------



     CUMULATIVE VOLUMES      L**3       RATES FOR THIS TIME STEP      L**3/T
     ------------------                 ------------------------

           IN:                                      IN:
           ---                                      ---
        INFILTRATION =  4266916873.3418          INFILTRATION =           0.8475

          OUT:                                     OUT:
          ----                                     ----
              UZF ET =   868799280.6286                UZF ET =           0.7500
        UZF RECHARGE =  3020057486.4836          UZF RECHARGE =           0.0181

            IN - OUT =   378060106.2295              IN - OUT =       7.9385E-02

          STORAGE:                                 STORAGE:
          --------                                 --------
      STORAGE CHANGE =   378105986.1686        STORAGE CHANGE =       7.9385E-02

 PERCENT DISCREPANCY IS DIFFERENCE BETWEEN IN-OUT MINUS CHANGE IN STORAGE
 DIVIDED BY THE AVERAGE OF IN AND OUT TIMES 100

 PERCENT DISCREPANCY =          -0.00     PERCENT DISCREPANCY =           0.00






1
  VOLUMETRIC BUDGET FOR AGRICULTURAL FIELDS AT  END OF TIME STEP   30, STRESS PERIOD  28
  ------------------------------------------------------------------------------

     CUMULATIVE VOLUMES      L**3       RATES FOR THIS TIME STEP      L**3/T
     ------------------                 ------------------------

           IN:                                      IN:
           ---                                      ---
               AG WELLS  =  3700675072.0000                 AG WELLS  =           0.0000
      DIVERSION SEGMENTS =   505989536.0000        DIVERSION SEGMENTS =           0.0000
           GW IRRIGATION =           0.0000             GW IRRIGATION =           0.0000
           SW IRRIGATION =           0.0000             SW IRRIGATION =           0.0000
        SYSTEM LOSSES GW =           0.0000          SYSTEM LOSSES GW =           0.0000
        SYSTEM LOSSES SW =           0.0000          SYSTEM LOSSES SW =           0.0000

                TOTAL IN =  4206664704.0000                  TOTAL IN =           0.0000

          OUT:                                     OUT:
          ----                                     ----
               AG WELLS  =           0.0000                 AG WELLS  =           0.0000
      DIVERSION SEGMENTS =           0.0000        DIVERSION SEGMENTS =           0.0000
           GW IRRIGATION =  3700675072.0000             GW IRRIGATION =           0.0000
           SW IRRIGATION =   505998912.0000             SW IRRIGATION =           0.0000
        SYSTEM LOSSES GW =           0.0000          SYSTEM LOSSES GW =           0.0000
        SYSTEM LOSSES SW =           0.0000          SYSTEM LOSSES SW =           0.0000

               TOTAL OUT =  4206673920.0000                 TOTAL OUT =           0.0000

                IN - OUT =       -9216.0000                  IN - OUT =           0.0000

     PERCENT DISCREPANCY =          -0.00         PERCENT DISCREPANCY =           0.00



1
  VOLUMETRIC BUDGET FOR ENTIRE MODEL AT END OF TIME STEP   30, STRESS PERIOD  28
  ------------------------------------------------------------------------------

     CUMULATIVE VOLUMES      L**3       RATES FOR THIS TIME STEP      L**3/T
     ------------------                 ------------------------

           IN:                                      IN:
           ---                                      ---
             STORAGE     =  3667619584.0000               STORAGE     =           1.0704
       CONSTANT HEAD     =           0.0000         CONSTANT HEAD     =           0.0000
     HEAD DEP BOUNDS     =    20508880.0000       HEAD DEP BOUNDS     =           0.2898
      STREAM LEAKAGE     =   849236160.0000        STREAM LEAKAGE     =          13.0758
        UZF RECHARGE     =  3020057600.0000          UZF RECHARGE     =       1.8115E-02
               GW ET     =           0.0000                 GW ET     =           0.0000
     SURFACE LEAKAGE     =           0.0000       SURFACE LEAKAGE     =           0.0000
           AG WELLS      =           0.0000             AG WELLS      =           0.0000

                TOTAL IN =  7557422080.0000                  TOTAL IN =          14.4541

          OUT:                                     OUT:
          ----                                     ----
             STORAGE     =  3139796480.0000               STORAGE     =           5.0827
       CONSTANT HEAD     =           0.0000         CONSTANT HEAD     =           0.0000
     HEAD DEP BOUNDS     =    20431576.0000       HEAD DEP BOUNDS     =           0.2896
      STREAM LEAKAGE     =   696458048.0000        STREAM LEAKAGE     =           9.0829
        UZF RECHARGE     =           0.0000          UZF RECHARGE     =           0.0000
               GW ET     =           0.0000                 GW ET     =           0.0000
     SURFACE LEAKAGE     =           0.0000       SURFACE LEAKAGE     =           0.0000
           AG WELLS      =  3700675072.0000             AG WELLS      =           0.0000

               TOTAL OUT =  7557361152.0000                 TOTAL OUT =          14.4552

                IN - OUT =       60928.0000                  IN - OUT =      -1.0881E-03

     PERCENT DISCREPANCY =           0.00         PERCENT DISCREPANCY =          -0.01






         TIME SUMMARY AT END OF TIME STEP   30 IN STRESS PERIOD   28
                    SECONDS     MINUTES      HOURS       DAYS        YEARS
                    -----------------------------------------------------------
   TIME STEP LENGTH  87667.      1461.1      24.352      1.0147     2.77799E-03
 STRESS PERIOD TIME 2.63000E+06  43833.      730.56      30.440     8.33397E-02
         TOTAL TIME 7.10967E+07 1.18494E+06  19749.      822.88      2.2529    
1
1
                            STRESS PERIOD NO.   29, LENGTH =   2630000.    
                            -----------------------------------------------

                              NUMBER OF TIME STEPS =    30

                               MULTIPLIER FOR DELT =     1.000

                            INITIAL TIME STEP SIZE =   87666.66    

 REUSING NON-PARAMETER GHB CELLS FROM LAST STRESS PERIOD

      2 GHB CELLS

 REUSING STREAM SEGMENT DATA FROM LAST STRESS PERIOD



            AREAL INFILTRATION RATE
 READING ON UNIT   19 WITH FORMAT: (FREE)              

            1           2           3           4           5           6           7           8           9          10
 ........................................................................................................................
   1   1.0000E-10  2.0000E-10   0.000       0.000       0.000       0.000       0.000       0.000       0.000       0.000    
   2   2.0000E-10  1.0000E-10  2.0000E-10   0.000       0.000      8.0000E-10  8.0000E-10  5.0000E-10   0.000       0.000    
   3    0.000      5.0000E-10  1.0000E-10  1.0000E-10  8.0000E-10  8.0000E-10  5.0000E-10  5.0000E-10   0.000       0.000    
   4   8.0000E-10  5.0000E-10  1.0000E-10  1.0000E-10  1.0000E-10  1.0000E-10  1.0000E-10  1.0000E-10  2.0000E-10   0.000    
   5   8.0000E-10  5.0000E-10  1.0000E-10  1.0000E-10  1.0000E-10  1.0000E-10  1.0000E-10  1.0000E-10  1.0000E-10  1.0000E-10
   6   8.0000E-10  5.0000E-10  5.0000E-10  2.0000E-10  2.0000E-10  1.0000E-10  1.0000E-10  1.0000E-10  1.0000E-10  5.0000E-10
   7   8.0000E-10  5.0000E-10  5.0000E-10  2.0000E-10  2.0000E-10  1.0000E-10  1.0000E-10  2.0000E-10  2.0000E-10   0.000    
   8    0.000      5.0000E-10  5.0000E-10  2.0000E-10  2.0000E-10  1.0000E-10  1.0000E-10  2.0000E-10  5.0000E-10   0.000    
   9    0.000      5.0000E-10  5.0000E-10  2.0000E-10  2.0000E-10  1.0000E-10  1.0000E-10  2.0000E-10  5.0000E-10   0.000    
  10    0.000      5.0000E-10  5.0000E-10  2.0000E-10  2.0000E-10  1.0000E-10  1.0000E-10  2.0000E-10  5.0000E-10  8.0000E-10
  11    0.000      1.0000E-10  1.0000E-10  1.0000E-10  1.0000E-10  1.0000E-10  1.0000E-10  2.0000E-10  5.0000E-10   0.000    
  12   1.0000E-10  1.0000E-10  1.0000E-10  1.0000E-10  1.0000E-10  1.0000E-10  1.0000E-10  1.0000E-10  2.0000E-10   0.000    
  13   1.0000E-10  1.0000E-10  2.0000E-10  2.0000E-10  2.0000E-10  2.0000E-10  2.0000E-10  1.0000E-10  1.0000E-10   0.000    
  14    0.000      2.0000E-10  5.0000E-10  5.0000E-10  5.0000E-10  5.0000E-10  5.0000E-10  2.0000E-10  1.0000E-10   0.000    
  15    0.000       0.000      8.0000E-10  8.0000E-10  8.0000E-10  8.0000E-10   0.000       0.000       0.000       0.000    

                  ET RATE =  2.500000E-08

 USING ET EXTINCTION DEPTH FROM PREVIOUS STRESS PERIOD. CURRENT PERIOD IS:      29

 USING EXTINCTION WATER CONTENT FROM PREVIOUS STRESS PERIOD. CURRENT PERIOD IS:      29

 USING AIR ENTRY PRESSURE FROM PREVIOUS STRESS PERIOD. CURRENT PERIOD IS:      29

 USING ROOT PRESSURE HEAD FROM PREVIOUS STRESS PERIOD. CURRENT PERIOD IS:      29

 USING ROOT ACTIVITY FROM PREVIOUS STRESS PERIOD. CURRENT PERIOD IS:      29

 PROCESSING AG STRESS PERIOD DATA

 READING AG STRESS PERIOD DATA

 READING IRRIGATION SEGMENT

 READING IRRIGATION WELL

 READING SUPPLEMENTAL WELL

 END PROCESSING AG STRESS PERIOD DATA OPTIONS
 
 SOLVING FOR HEAD 
                                                   Max.-Head-Change                         Max.-Flux-Residual
  Residual-Control   Outer-Iter.   Inner-Iter.     Column Row Layer    Maximum-Head-Change  Column Row Layer    Maximum-Flux-Residual          L2-NORM 
          0                 1           2             4    3     1       0.3506084343E-02       4    3    1         0.1832355296E+00      0.7339312025E+00
          0                 2           2             4    3     1      -0.3410466236E-03       4    3    1        -0.1832356823E-01      0.7337505754E-01
          0                 3           1             4    3     1       0.2322404050E-04       4    3    1         0.1282650187E-02      0.5136748604E-02

    ------------------------------------------------
       NWT REQUIRED            3 OUTER ITERATIONS 
       AND A TOTAL OF          5 INNER ITERATIONS.
    ------------------------------------------------

 NO OUTPUT CONTROL FOR STRESS PERIOD   29   TIME STEP    1
 
 SOLVING FOR HEAD 
                                                   Max.-Head-Change                         Max.-Flux-Residual
  Residual-Control   Outer-Iter.   Inner-Iter.     Column Row Layer    Maximum-Head-Change  Column Row Layer    Maximum-Flux-Residual          L2-NORM 
          0                 1           2             4   13     1      -0.5458978371E-02       4   13    1        -0.3141101693E+00      0.8182613497E+00
          0                 2           2             4   13     1       0.5260970021E-03       4   13    1         0.3112572719E-01      0.8098945090E-01
          0                 3           1             4   13     1      -0.3534875648E-04       4   13    1        -0.2150333556E-02      0.5594563421E-02

    ------------------------------------------------
       NWT REQUIRED            3 OUTER ITERATIONS 
       AND A TOTAL OF          5 INNER ITERATIONS.
    ------------------------------------------------

 NO OUTPUT CONTROL FOR STRESS PERIOD   29   TIME STEP    2
 
 SOLVING FOR HEAD 
                                                   Max.-Head-Change                         Max.-Flux-Residual
  Residual-Control   Outer-Iter.   Inner-Iter.     Column Row Layer    Maximum-Head-Change  Column Row Layer    Maximum-Flux-Residual          L2-NORM 
          0                 1           2             4   13     1      -0.6213911557E-02       4   13    1        -0.3569534800E+00      0.8614681265E+00
          0                 2           2             4   13     1       0.5987999484E-03       4   13    1         0.3536753425E-01      0.8508426638E-01
          0                 3           1             4   13     1      -0.4024169070E-04       4   13    1        -0.2443838740E-02      0.5859500952E-02

    ------------------------------------------------
       NWT REQUIRED            3 OUTER ITERATIONS 
       AND A TOTAL OF          5 INNER ITERATIONS.
    ------------------------------------------------

 NO OUTPUT CONTROL FOR STRESS PERIOD   29   TIME STEP    3
 
 SOLVING FOR HEAD 
                                                   Max.-Head-Change                         Max.-Flux-Residual
  Residual-Control   Outer-Iter.   Inner-Iter.     Column Row Layer    Maximum-Head-Change  Column Row Layer    Maximum-Flux-Residual          L2-NORM 
          0                 1           2             4   13     1      -0.5623503789E-02       4   13    1        -0.3229561447E+00      0.8808860231E+00
          0                 2           2             5    8     1       0.1274955357E-02       5    8    1         0.7070995556E-01      0.1080204033E+00
          0                 3           1             5    8     1       0.2899394522E-03       5    8    1         0.1597471990E-01      0.1694042552E-01
          0                 4           1             5    8     1       0.6593556994E-04       5    8    1         0.3639047431E-02      0.3645868354E-02

    ------------------------------------------------
       NWT REQUIRED            4 OUTER ITERATIONS 
       AND A TOTAL OF          6 INNER ITERATIONS.
    ------------------------------------------------

 NO OUTPUT CONTROL FOR STRESS PERIOD   29   TIME STEP    4
 
 SOLVING FOR HEAD 
                                                   Max.-Head-Change                         Max.-Flux-Residual
  Residual-Control   Outer-Iter.   Inner-Iter.     Column Row Layer    Maximum-Head-Change  Column Row Layer    Maximum-Flux-Residual          L2-NORM 
          0                 1           2             5    8     1       0.8748305383E-02       5    8    1         0.4789745100E+00      0.9305263335E+00
          0                 2           2             5    8     1       0.1989457539E-02       5    8    1         0.1101750941E+00      0.1355400578E+00
          0                 3           1             5    8     1       0.4524243731E-03       5    8    1         0.2493847491E-01      0.2553054047E-01
          0                 4           1             5    8     1       0.1028862811E-03       5    8    1         0.5677938045E-02      0.5682030295E-02
          0                 5           1             5    8     1       0.2339747392E-04       5    8    1         0.1290953611E-02      0.1290994357E-02

    ------------------------------------------------
       NWT REQUIRED            5 OUTER ITERATIONS 
       AND A TOTAL OF          7 INNER ITERATIONS.
    ------------------------------------------------

 NO OUTPUT CONTROL FOR STRESS PERIOD   29   TIME STEP    5
 
 SOLVING FOR HEAD 
                                                   Max.-Head-Change                         Max.-Flux-Residual
  Residual-Control   Outer-Iter.   Inner-Iter.     Column Row Layer    Maximum-Head-Change  Column Row Layer    Maximum-Flux-Residual          L2-NORM 
          0                 1           2             5    8     1       0.8100462992E-02       5    8    1         0.4426966917E+00      0.8921459969E+00
          0                 2           2             5    8     1       0.1842127904E-02       5    8    1         0.1020970795E+00      0.1277131403E+00
          0                 3           1             5    8     1       0.4189191814E-03       5    8    1         0.2308597693E-01      0.2369128067E-01
          0                 4           1             5    8     1       0.9526664211E-04       5    8    1         0.5257675352E-02      0.5261827827E-02

    ------------------------------------------------
       NWT REQUIRED            4 OUTER ITERATIONS 
       AND A TOTAL OF          6 INNER ITERATIONS.
    ------------------------------------------------

 NO OUTPUT CONTROL FOR STRESS PERIOD   29   TIME STEP    6
 
 SOLVING FOR HEAD 
                                                   Max.-Head-Change                         Max.-Flux-Residual
  Residual-Control   Outer-Iter.   Inner-Iter.     Column Row Layer    Maximum-Head-Change  Column Row Layer    Maximum-Flux-Residual          L2-NORM 
          0                 1           2             5    8     1       0.7516074277E-02       5    8    1         0.4099902360E+00      0.8588361759E+00
          0                 2           2             5    8     1       0.1709229034E-02       5    8    1         0.9480846339E-01      0.1207820658E+00
          0                 3           1             5    8     1       0.3886958794E-03       5    8    1         0.2141505768E-01      0.2203683211E-01
          0                 4           1             5    8     1       0.8839338167E-04       5    8    1         0.4878573258E-02      0.4882834531E-02

    ------------------------------------------------
       NWT REQUIRED            4 OUTER ITERATIONS 
       AND A TOTAL OF          6 INNER ITERATIONS.
    ------------------------------------------------

 NO OUTPUT CONTROL FOR STRESS PERIOD   29   TIME STEP    7
 
 SOLVING FOR HEAD 
                                                   Max.-Head-Change                         Max.-Flux-Residual
  Residual-Control   Outer-Iter.   Inner-Iter.     Column Row Layer    Maximum-Head-Change  Column Row Layer    Maximum-Flux-Residual          L2-NORM 
          0                 1           2             5    8     1       0.6987326977E-02       5    8    1         0.3804149310E+00      0.8299122196E+00
          0                 2           2             5    8     1       0.1588984193E-02       5    8    1         0.8821210902E-01      0.1146284824E+00
          0                 3           1             5    8     1       0.3613503819E-03       5    8    1         0.1990335698E-01      0.2054418312E-01
          0                 4           1             5    8     1       0.8217459793E-04       5    8    1         0.4535563941E-02      0.4539932238E-02

    ------------------------------------------------
       NWT REQUIRED            4 OUTER ITERATIONS 
       AND A TOTAL OF          6 INNER ITERATIONS.
    ------------------------------------------------

 NO OUTPUT CONTROL FOR STRESS PERIOD   29   TIME STEP    8
 
 SOLVING FOR HEAD 
                                                   Max.-Head-Change                         Max.-Flux-Residual
  Residual-Control   Outer-Iter.   Inner-Iter.     Column Row Layer    Maximum-Head-Change  Column Row Layer    Maximum-Flux-Residual          L2-NORM 
          0                 1           2             5    8     1       0.6508621451E-02       5    8    1         0.3536544786E+00      0.8048180423E+00
          0                 2           2             5    8     1       0.1480119848E-02       5    8    1         0.8223846742E-01      0.1091769604E+00
          0                 3           1             5    8     1       0.3365930470E-03       5    8    1         0.1853484214E-01      0.1919764195E-01
          0                 4           1             5    8     1       0.7654441677E-04       5    8    1         0.4225015063E-02      0.4229538747E-02

    ------------------------------------------------
       NWT REQUIRED            4 OUTER ITERATIONS 
       AND A TOTAL OF          6 INNER ITERATIONS.
    ------------------------------------------------

 NO OUTPUT CONTROL FOR STRESS PERIOD   29   TIME STEP    9
 
 SOLVING FOR HEAD 
                                                   Max.-Head-Change                         Max.-Flux-Residual
  Residual-Control   Outer-Iter.   Inner-Iter.     Column Row Layer    Maximum-Head-Change  Column Row Layer    Maximum-Flux-Residual          L2-NORM 
          0                 1           2             5    8     1       0.6074953563E-02       5    8    1         0.3294263852E+00      0.7830434488E+00
          0                 2           2             5    8     1       0.1381497917E-02       5    8    1         0.7682536926E-01      0.1043486014E+00
          0                 3           1             5    8     1       0.3141650399E-03       5    8    1         0.1729518682E-01      0.1798225642E-01
          0                 4           1             5    8     1       0.7144397154E-04       5    8    1         0.3943680591E-02      0.3948375172E-02

    ------------------------------------------------
       NWT REQUIRED            4 OUTER ITERATIONS 
       AND A TOTAL OF          6 INNER ITERATIONS.
    ------------------------------------------------

 NO OUTPUT CONTROL FOR STRESS PERIOD   29   TIME STEP   10
 
 SOLVING FOR HEAD 
                                                   Max.-Head-Change                         Max.-Flux-Residual
  Residual-Control   Outer-Iter.   Inner-Iter.     Column Row Layer    Maximum-Head-Change  Column Row Layer    Maximum-Flux-Residual          L2-NORM 
          0                 1           2             5    8     1       0.5681709682E-02       5    8    1         0.3074703410E+00      0.7641401263E+00
          0                 2           2             5    8     1       0.1292069134E-02       5    8    1         0.7191548263E-01      0.1000713952E+00
          0                 3           1             5    8     1       0.2938277281E-03       5    8    1         0.1617118380E-01      0.1688449033E-01
          0                 4           1             5    8     1       0.6681899016E-04       5    8    1         0.3688567827E-02      0.3693439327E-02

    ------------------------------------------------
       NWT REQUIRED            4 OUTER ITERATIONS 
       AND A TOTAL OF          6 INNER ITERATIONS.
    ------------------------------------------------

 NO OUTPUT CONTROL FOR STRESS PERIOD   29   TIME STEP   11
 
 SOLVING FOR HEAD 
                                                   Max.-Head-Change                         Max.-Flux-Residual
  Residual-Control   Outer-Iter.   Inner-Iter.     Column Row Layer    Maximum-Head-Change  Column Row Layer    Maximum-Flux-Residual          L2-NORM 
          0                 1           2             5    8     1       0.5325180882E-02       5    8    1         0.2875771751E+00      0.7477152118E+00
          0                 2           2             5    8     1       0.1210989992E-02       5    8    1         0.6746270880E-01      0.9628673001E-01
          0                 3           1             5    8     1       0.2753892743E-03       5    8    1         0.1515221639E-01      0.1589375089E-01
          0                 4           1             5    8     1       0.6262584375E-04       5    8    1         0.3457270911E-02      0.3462380177E-02

    ------------------------------------------------
       NWT REQUIRED            4 OUTER ITERATIONS 
       AND A TOTAL OF          6 INNER ITERATIONS.
    ------------------------------------------------

 NO OUTPUT CONTROL FOR STRESS PERIOD   29   TIME STEP   12
 
 SOLVING FOR HEAD 
                                                   Max.-Head-Change                         Max.-Flux-Residual
  Residual-Control   Outer-Iter.   Inner-Iter.     Column Row Layer    Maximum-Head-Change  Column Row Layer    Maximum-Flux-Residual          L2-NORM 
          0                 1           2             5    8     1       0.5001354286E-02       5    8    1         0.2695204805E+00      0.7334213054E+00
          0                 2           2             5    8     1       0.1137347869E-02       5    8    1         0.6341718033E-01      0.9293476627E-01
          0                 3           1             5    8     1       0.2586421264E-03       5    8    1         0.1422679742E-01      0.1499813831E-01
          0                 4           1             5    8     1       0.5881732974E-04       5    8    1         0.3247186928E-02      0.3252509551E-02

    ------------------------------------------------
       NWT REQUIRED            4 OUTER ITERATIONS 
       AND A TOTAL OF          6 INNER ITERATIONS.
    ------------------------------------------------

 NO OUTPUT CONTROL FOR STRESS PERIOD   29   TIME STEP   13
 
 SOLVING FOR HEAD 
                                                   Max.-Head-Change                         Max.-Flux-Residual
  Residual-Control   Outer-Iter.   Inner-Iter.     Column Row Layer    Maximum-Head-Change  Column Row Layer    Maximum-Flux-Residual          L2-NORM 
          0                 1           2             5    8     1       0.4707334846E-02       5    8    1         0.2531371143E+00      0.7209559451E+00
          0                 2           2             5    8     1       0.1070484363E-02       5    8    1         0.5974290146E-01      0.8996666704E-01
          0                 3           1             5    8     1       0.2434365469E-03       5    8    1         0.1338664094E-01      0.1418913349E-01
          0                 4           1             5    8     1       0.5535939337E-04       5    8    1         0.3056437955E-02      0.3062010685E-02

    ------------------------------------------------
       NWT REQUIRED            4 OUTER ITERATIONS 
       AND A TOTAL OF          6 INNER ITERATIONS.
    ------------------------------------------------

 NO OUTPUT CONTROL FOR STRESS PERIOD   29   TIME STEP   14
 
 SOLVING FOR HEAD 
                                                   Max.-Head-Change                         Max.-Flux-Residual
  Residual-Control   Outer-Iter.   Inner-Iter.     Column Row Layer    Maximum-Head-Change  Column Row Layer    Maximum-Flux-Residual          L2-NORM 
          0                 1           2             5    8     1       0.4439974151E-02       5    8    1         0.2382495875E+00      0.7100606151E+00
          0                 2           2             5    8     1       0.1009683459E-02       5    8    1         0.5640073290E-01      0.8733720371E-01
          0                 3           1             5    8     1       0.2296096986E-03       5    8    1         0.1262273554E-01      0.1345739648E-01
          0                 4           1             5    8     1       0.5221500246E-04       5    8    1         0.2882981822E-02      0.2888784923E-02

    ------------------------------------------------
       NWT REQUIRED            4 OUTER ITERATIONS 
       AND A TOTAL OF          6 INNER ITERATIONS.
    ------------------------------------------------

 NO OUTPUT CONTROL FOR STRESS PERIOD   29   TIME STEP   15
 
 SOLVING FOR HEAD 
                                                   Max.-Head-Change                         Max.-Flux-Residual
  Residual-Control   Outer-Iter.   Inner-Iter.     Column Row Layer    Maximum-Head-Change  Column Row Layer    Maximum-Flux-Residual          L2-NORM 
          0                 1           2             5    8     1       0.4196872618E-02       5    8    1         0.2247226493E+00      0.7005129719E+00
          0                 2           2             5    8     1       0.9543994400E-03       5    8    1         0.5336084193E-01      0.8500537632E-01
          0                 3           1             5    8     1       0.2170374726E-03       5    8    1         0.1192821321E-01      0.1279578824E-01
          0                 4           1             5    8     1       0.4935593210E-04       5    8    1         0.2725262051E-02      0.2731326162E-02

    ------------------------------------------------
       NWT REQUIRED            4 OUTER ITERATIONS 
       AND A TOTAL OF          6 INNER ITERATIONS.
    ------------------------------------------------

 NO OUTPUT CONTROL FOR STRESS PERIOD   29   TIME STEP   16
 
 SOLVING FOR HEAD 
                                                   Max.-Head-Change                         Max.-Flux-Residual
  Residual-Control   Outer-Iter.   Inner-Iter.     Column Row Layer    Maximum-Head-Change  Column Row Layer    Maximum-Flux-Residual          L2-NORM 
          0                 1           2             5    8     1       0.3975605097E-02       5    8    1         0.2124195257E+00      0.6921158758E+00
          0                 2           2             5    8     1       0.9040807794E-03       5    8    1         0.5059308628E-01      0.8293615771E-01
          0                 3           1             5    8     1       0.2055944418E-03       5    8    1         0.1129613236E-01      0.1219740203E-01
          0                 4           1             5    8     1       0.4675365651E-04       5    8    1         0.2581705624E-02      0.2588072142E-02

    ------------------------------------------------
       NWT REQUIRED            4 OUTER ITERATIONS 
       AND A TOTAL OF          6 INNER ITERATIONS.
    ------------------------------------------------

 NO OUTPUT CONTROL FOR STRESS PERIOD   29   TIME STEP   17
 
 SOLVING FOR HEAD 
                                                   Max.-Head-Change                         Max.-Flux-Residual
  Residual-Control   Outer-Iter.   Inner-Iter.     Column Row Layer    Maximum-Head-Change  Column Row Layer    Maximum-Flux-Residual          L2-NORM 
          0                 1           2             5    8     1       0.3773995793E-02       5    8    1         0.2012178731E+00      0.6847042238E+00
          0                 2           2             5    8     1       0.8582326620E-03       5    8    1         0.4807038612E-01      0.8109696025E-01
          0                 3           1             5    8     1       0.1951680748E-03       5    8    1         0.1072026766E-01      0.1165570182E-01
          0                 4           1             5    8     1       0.4438258493E-04       5    8    1         0.2450901199E-02      0.2457536881E-02

    ------------------------------------------------
       NWT REQUIRED            4 OUTER ITERATIONS 
       AND A TOTAL OF          6 INNER ITERATIONS.
    ------------------------------------------------

 NO OUTPUT CONTROL FOR STRESS PERIOD   29   TIME STEP   18
 
 SOLVING FOR HEAD 
                                                   Max.-Head-Change                         Max.-Flux-Residual
  Residual-Control   Outer-Iter.   Inner-Iter.     Column Row Layer    Maximum-Head-Change  Column Row Layer    Maximum-Flux-Residual          L2-NORM 
          0                 1           2             5    8     1       0.3590235814E-02       5    8    1         0.1910157878E+00      0.6781400185E+00
          0                 2           2             5    8     1       0.8164437132E-03       5    8    1         0.4577024721E-01      0.7946001168E-01
          0                 3           1             5    8     1       0.1856648170E-03       5    8    1         0.1019544230E-01      0.1116496473E-01
          0                 4           1             5    8     1       0.4222144119E-04       5    8    1         0.2331675494E-02      0.2338594753E-02

    ------------------------------------------------
       NWT REQUIRED            4 OUTER ITERATIONS 
       AND A TOTAL OF          6 INNER ITERATIONS.
    ------------------------------------------------

 NO OUTPUT CONTROL FOR STRESS PERIOD   29   TIME STEP   19
 
 SOLVING FOR HEAD 
                                                   Max.-Head-Change                         Max.-Flux-Residual
  Residual-Control   Outer-Iter.   Inner-Iter.     Column Row Layer    Maximum-Head-Change  Column Row Layer    Maximum-Flux-Residual          L2-NORM 
          0                 1           2             5    8     1       0.3422565135E-02       5    8    1         0.1817141554E+00      0.6722976120E+00
          0                 2           2             5    8     1       0.7783136729E-03       5    8    1         0.4367077926E-01      0.7799995346E-01
          0                 3           1             5    8     1       0.1769936428E-03       5    8    1         0.9716619561E-02      0.1072026921E-01
          0                 4           1             5    8     1       0.4024952420E-04       5    8    1         0.2222886874E-02      0.2230070418E-02

    ------------------------------------------------
       NWT REQUIRED            4 OUTER ITERATIONS 
       AND A TOTAL OF          6 INNER ITERATIONS.
    ------------------------------------------------

 NO OUTPUT CONTROL FOR STRESS PERIOD   29   TIME STEP   20
 
 SOLVING FOR HEAD 
                                                   Max.-Head-Change                         Max.-Flux-Residual
  Residual-Control   Outer-Iter.   Inner-Iter.     Column Row Layer    Maximum-Head-Change  Column Row Layer    Maximum-Flux-Residual          L2-NORM 
          0                 1           2             5    8     1       0.3269399390E-02       5    8    1         0.1732241876E+00      0.6670738107E+00
          0                 2           2             5    8     1       0.7434822312E-03       5    8    1         0.4175223335E-01      0.7669470783E-01
          0                 3           1             5    8     1       0.1690726113E-03       5    8    1         0.9279268491E-02      0.1031682190E-01
          0                 4           1             5    8     1       0.3844819883E-04       5    8    1         0.2123507581E-02      0.2130998498E-02

    ------------------------------------------------
       NWT REQUIRED            4 OUTER ITERATIONS 
       AND A TOTAL OF          6 INNER ITERATIONS.
    ------------------------------------------------

 NO OUTPUT CONTROL FOR STRESS PERIOD   29   TIME STEP   21
 
 SOLVING FOR HEAD 
                                                   Max.-Head-Change                         Max.-Flux-Residual
  Residual-Control   Outer-Iter.   Inner-Iter.     Column Row Layer    Maximum-Head-Change  Column Row Layer    Maximum-Flux-Residual          L2-NORM 
          0                 1           2             5    8     1       0.3129603529E-02       5    8    1         0.1654816767E+00      0.6623774497E+00
          0                 2           2             5    8     1       0.7116912584E-03       5    8    1         0.4000052119E-01      0.7552604849E-01
          0                 3           1             5    8     1       0.1618430196E-03       5    8    1         0.8880138864E-02      0.9951125604E-02
          0                 4           1             5    8     1       0.3680411515E-04       5    8    1         0.2032801452E-02      0.2040598106E-02

    ------------------------------------------------
       NWT REQUIRED            4 OUTER ITERATIONS 
       AND A TOTAL OF          6 INNER ITERATIONS.
    ------------------------------------------------

 NO OUTPUT CONTROL FOR STRESS PERIOD   29   TIME STEP   22
 
 SOLVING FOR HEAD 
                                                   Max.-Head-Change                         Max.-Flux-Residual
  Residual-Control   Outer-Iter.   Inner-Iter.     Column Row Layer    Maximum-Head-Change  Column Row Layer    Maximum-Flux-Residual          L2-NORM 
          0                 1           2             5    8     1       0.3001600037E-02       5    8    1         0.1583979196E+00      0.6581462894E+00
          0                 2           2             5    8     1       0.6825820053E-03       5    8    1         0.3839600911E-01      0.7447686959E-01
          0                 3           1             5    8     1       0.1552232832E-03       5    8    1         0.8514717329E-02      0.9618692328E-02
          0                 4           1             5    8     1       0.3529871991E-04       5    8    1         0.1949745276E-02      0.1957817690E-02

    ------------------------------------------------
       NWT REQUIRED            4 OUTER ITERATIONS 
       AND A TOTAL OF          6 INNER ITERATIONS.
    ------------------------------------------------

 NO OUTPUT CONTROL FOR STRESS PERIOD   29   TIME STEP   23
 
 SOLVING FOR HEAD 
                                                   Max.-Head-Change                         Max.-Flux-Residual
  Residual-Control   Outer-Iter.   Inner-Iter.     Column Row Layer    Maximum-Head-Change  Column Row Layer    Maximum-Flux-Residual          L2-NORM 
          0                 1           2             5    8     1       0.2884386428E-02       5    8    1         0.1519169165E+00      0.6543035576E+00
          0                 2           2             5    8     1       0.6559264921E-03       5    8    1         0.3692618323E-01      0.7353154165E-01
          0                 3           1             5    8     1       0.1491615543E-03       5    8    1         0.8180138202E-02      0.9316572444E-02
          0                 4           1             5    8     1       0.3392022277E-04       5    8    1         0.1873688704E-02      0.1882178381E-02

    ------------------------------------------------
       NWT REQUIRED            4 OUTER ITERATIONS 
       AND A TOTAL OF          6 INNER ITERATIONS.
    ------------------------------------------------

 NO OUTPUT CONTROL FOR STRESS PERIOD   29   TIME STEP   24
 
 SOLVING FOR HEAD 
                                                   Max.-Head-Change                         Max.-Flux-Residual
  Residual-Control   Outer-Iter.   Inner-Iter.     Column Row Layer    Maximum-Head-Change  Column Row Layer    Maximum-Flux-Residual          L2-NORM 
          0                 1           2             5    8     1       0.2777065944E-02       5    8    1         0.1459880948E+00      0.6507979311E+00
          0                 2           2             5    8     1       0.6315207823E-03       5    8    1         0.3557989744E-01      0.7267850807E-01
          0                 3           1             5    8     1       0.1436114567E-03       5    8    1         0.7873834798E-02      0.9041126041E-02
          0                 4           1             5    8     1       0.3265807566E-04       5    8    1         0.1804050084E-02      0.1812670168E-02

    ------------------------------------------------
       NWT REQUIRED            4 OUTER ITERATIONS 
       AND A TOTAL OF          6 INNER ITERATIONS.
    ------------------------------------------------

 NO OUTPUT CONTROL FOR STRESS PERIOD   29   TIME STEP   25
 
 SOLVING FOR HEAD 
                                                   Max.-Head-Change                         Max.-Flux-Residual
  Residual-Control   Outer-Iter.   Inner-Iter.     Column Row Layer    Maximum-Head-Change  Column Row Layer    Maximum-Flux-Residual          L2-NORM 
          0                 1           2             5    9     1       0.2737583903E-02       5    9    1         0.1438762961E+00      0.6475896894E+00
          0                 2           2             5    8     1       0.6091494274E-03       5    8    1         0.3434534346E-01      0.7190686764E-01
          0                 3           1             5    8     1       0.1385239931E-03       5    8    1         0.7593097732E-02      0.8790715484E-02
          0                 4           1             5    8     1       0.3150113663E-04       5    8    1         0.1740214874E-02      0.1749115878E-02

    ------------------------------------------------
       NWT REQUIRED            4 OUTER ITERATIONS 
       AND A TOTAL OF          6 INNER ITERATIONS.
    ------------------------------------------------

 NO OUTPUT CONTROL FOR STRESS PERIOD   29   TIME STEP   26
 
 SOLVING FOR HEAD 
                                                   Max.-Head-Change                         Max.-Flux-Residual
  Residual-Control   Outer-Iter.   Inner-Iter.     Column Row Layer    Maximum-Head-Change  Column Row Layer    Maximum-Flux-Residual          L2-NORM 
          0                 1           2             5    9     1       0.2723429351E-02       5    9    1         0.1431531643E+00      0.6446363501E+00
          0                 2           2             5    8     1       0.5886195219E-03       5    8    1         0.3321197342E-01      0.7120624012E-01
          0                 3           1             5    8     1       0.1338552944E-03       5    8    1         0.7335499422E-02      0.8562611750E-02
          0                 4           1             5    8     1       0.3043942925E-04       5    8    1         0.1681632911E-02      0.1690805778E-02

    ------------------------------------------------
       NWT REQUIRED            4 OUTER ITERATIONS 
       AND A TOTAL OF          6 INNER ITERATIONS.
    ------------------------------------------------

 NO OUTPUT CONTROL FOR STRESS PERIOD   29   TIME STEP   27
 
 SOLVING FOR HEAD 
                                                   Max.-Head-Change                         Max.-Flux-Residual
  Residual-Control   Outer-Iter.   Inner-Iter.     Column Row Layer    Maximum-Head-Change  Column Row Layer    Maximum-Flux-Residual          L2-NORM 
          0                 1           2             5    9     1       0.2708628527E-02       5    9    1         0.1423900044E+00      0.6418958351E+00
          0                 2           2             5    8     1       0.5697242568E-03       5    8    1         0.3216842081E-01      0.7056591762E-01
          0                 3           1             5    8     1       0.1295583304E-03       5    8    1         0.7098441436E-02      0.8353380486E-02
          0                 4           1             5    8     1       0.2946225854E-04       5    8    1         0.1627714190E-02      0.1637167322E-02

    ------------------------------------------------
       NWT REQUIRED            4 OUTER ITERATIONS 
       AND A TOTAL OF          6 INNER ITERATIONS.
    ------------------------------------------------

 NO OUTPUT CONTROL FOR STRESS PERIOD   29   TIME STEP   28
 
 SOLVING FOR HEAD 
                                                   Max.-Head-Change                         Max.-Flux-Residual
  Residual-Control   Outer-Iter.   Inner-Iter.     Column Row Layer    Maximum-Head-Change  Column Row Layer    Maximum-Flux-Residual          L2-NORM 
          0                 1           2             5    9     1       0.2693338540E-02       5    9    1         0.1415956653E+00      0.6393541973E+00
          0                 2           2             5    8     1       0.5523750353E-03       5    8    1         0.3120987562E-01      0.6998362517E-01
          0                 3           1             5    8     1       0.1256129520E-03       5    8    1         0.6880806377E-02      0.8163323532E-02
          0                 4           1             5    8     1       0.2856504170E-04       5    8    1         0.1578206113E-02      0.1588395618E-02

    ------------------------------------------------
       NWT REQUIRED            4 OUTER ITERATIONS 
       AND A TOTAL OF          6 INNER ITERATIONS.
    ------------------------------------------------

 NO OUTPUT CONTROL FOR STRESS PERIOD   29   TIME STEP   29
 
 SOLVING FOR HEAD 
                                                   Max.-Head-Change                         Max.-Flux-Residual
  Residual-Control   Outer-Iter.   Inner-Iter.     Column Row Layer    Maximum-Head-Change  Column Row Layer    Maximum-Flux-Residual          L2-NORM 
          0                 1           2             6    8     1       0.2959901416E-02       4   13    1         0.1610322499E+00      0.7145881869E+00
          0                 2           2             5    8     1       0.5375903564E-03       5    8    1         0.3042080327E-01      0.7648209422E-01
          0                 3           1             5    8     1       0.1222507687E-03       5    8    1         0.6693397193E-02      0.8295949018E-02
          0                 4           1             5    8     1       0.2780044798E-04       5    8    1         0.1536095699E-02      0.1548450508E-02

    ------------------------------------------------
       NWT REQUIRED            4 OUTER ITERATIONS 
       AND A TOTAL OF          6 INNER ITERATIONS.
    ------------------------------------------------

 NO OUTPUT CONTROL FOR STRESS PERIOD   29   TIME STEP   30



 STREAM LISTING     PERIOD     29   STEP       30

 LAYER ROW COL. STREAM  RCH.  FLOW INTO     FLOW TO   FLOW OUT OF   OVRLND.     DIRECT     STREAM       STREAM     STREAM     STREAM   STREAMBED  STREAMBED
                SEG.NO.  NO.  STRM. RCH.    AQUIFER    STRM. RCH.    RUNOFF     PRECIP       ET          HEAD       DEPTH      WIDTH   CONDCTNC.   GRADIENT

   1    1    1     1     1    1.8581E+01  2.1154E-01   1.8369E+01  0.000E+00  0.000E+00  0.000E+00  1.09412E+03  1.075E+00  1.154E+01  5.191E-02  1.358E+00
   1    2    2     1     2    1.8369E+01  3.2630E-01   1.8043E+01  0.000E+00  0.000E+00  0.000E+00  1.08913E+03  1.070E+00  1.145E+01  8.016E-02  1.357E+00
   1    3    3     1     3    1.8043E+01  2.7702E-01   1.7766E+01  0.000E+00  0.000E+00  0.000E+00  1.08348E+03  1.065E+00  1.136E+01  6.814E-02  1.355E+00
   1    3    4     1     4    1.7766E+01  2.5406E-01   1.7512E+01  0.000E+00  0.000E+00  0.000E+00  1.07847E+03  1.061E+00  1.127E+01  6.256E-02  1.354E+00
   1    4    5     2     1    1.5512E+01  3.0432E-01   1.5207E+01  0.000E+00  0.000E+00  0.000E+00  1.07284E+03  9.015E-01  1.200E+01  7.800E-02  1.301E+00
   1    5    6     2     2    1.5207E+01  2.3352E-01   1.4974E+01  0.000E+00  0.000E+00  0.000E+00  1.06740E+03  8.920E-01  1.200E+01  6.000E-02  1.297E+00
   1    6    6     2     3    1.4974E+01  2.3302E-01   1.4741E+01  0.000E+00  0.000E+00  0.000E+00  1.06268E+03  8.837E-01  1.200E+01  6.000E-02  1.295E+00
   1    7    6     2     4    1.4741E+01  2.3252E-01   1.4508E+01  0.000E+00  0.000E+00  0.000E+00  1.05795E+03  8.754E-01  1.200E+01  6.000E-02  1.292E+00
   1    8    6     2     5    1.4508E+01  2.3202E-01   1.4276E+01  0.000E+00  0.000E+00  0.000E+00  1.05323E+03  8.670E-01  1.200E+01  6.000E-02  1.289E+00
   1    3    5     3     1    2.0000E+00  2.8252E-01   1.7175E+00  0.000E+00  0.000E+00  0.000E+00  1.07555E+03  1.909E+00  9.636E+00  7.227E-02  1.955E+00
   1    3    6     3     2    1.7175E+00  2.4905E-01   1.4684E+00  0.000E+00  0.000E+00  0.000E+00  1.07264E+03  1.727E+00  8.909E+00  6.682E-02  1.864E+00
   1    3    7     3     3    1.4684E+00  1.9718E-01   1.2712E+00  0.000E+00  0.000E+00  0.000E+00  1.06987E+03  1.555E+00  8.218E+00  5.547E-02  1.777E+00
   1    4    8     3     4    1.2712E+00  2.2567E-01   1.0456E+00  0.000E+00  0.000E+00  0.000E+00  1.06682E+03  1.364E+00  7.455E+00  6.709E-02  1.682E+00
   1    5    8     3     5    1.0456E+00  1.5790E-01   8.8768E-01  0.000E+00  0.000E+00  0.000E+00  1.06362E+03  1.164E+00  6.655E+00  4.991E-02  1.582E+00
   1    6    8     3     6    8.8768E-01  5.5980E-02   8.3170E-01  0.000E+00  0.000E+00  0.000E+00  1.06158E+03  1.036E+00  6.145E+00  1.844E-02  1.518E+00
   1    5   10     4     1    1.0000E+01  9.0919E-02   9.9091E+00  0.000E+00  0.000E+00  0.000E+00  1.07836E+03  6.368E-01  1.000E+01  2.500E-02  1.212E+00
   1    5    9     4     2    9.9091E+00  1.8158E-01   9.7275E+00  0.000E+00  0.000E+00  0.000E+00  1.07154E+03  6.315E-01  1.000E+01  5.000E-02  1.211E+00
   1    6    8     4     3    9.7275E+00  1.2689E-01   9.6006E+00  0.000E+00  0.000E+00  0.000E+00  1.06381E+03  6.256E-01  1.000E+01  3.500E-02  1.209E+00
   1    6    8     5     1    1.0432E+01  2.2686E-01   1.0205E+01  0.000E+00  0.000E+00  0.000E+00  1.05868E+03  6.790E-01  1.542E+01  6.166E-02  1.226E+00
   1    7    7     5     2    1.0205E+01  2.7894E-01   9.9265E+00  0.000E+00  0.000E+00  0.000E+00  1.05417E+03  6.732E-01  1.519E+01  7.594E-02  1.224E+00
   1    8    7     5     3    9.9265E+00  1.9221E-01   9.7343E+00  0.000E+00  0.000E+00  0.000E+00  1.04992E+03  6.676E-01  1.497E+01  5.241E-02  1.223E+00
   1    8    6     5     4    9.7343E+00  1.3577E-01   9.5985E+00  0.000E+00  0.000E+00  0.000E+00  1.04691E+03  6.637E-01  1.482E+01  3.706E-02  1.221E+00
   1    9    6     6     1    2.3875E+01  2.5104E-01   2.3624E+01  0.000E+00  0.000E+00  0.000E+00  1.04391E+03  1.184E+00  1.200E+01  6.000E-02  1.395E+00
   1   10    7     6     2    2.3624E+01  2.5059E-01   2.3373E+01  0.000E+00  0.000E+00  0.000E+00  1.03936E+03  1.177E+00  1.200E+01  6.000E-02  1.392E+00
   1   11    7     6     3    2.3373E+01  2.5014E-01   2.3123E+01  0.000E+00  0.000E+00  0.000E+00  1.03481E+03  1.169E+00  1.200E+01  6.000E-02  1.390E+00
   1   12    7     6     4    2.3123E+01  2.4969E-01   2.2873E+01  0.000E+00  0.000E+00  0.000E+00  1.03025E+03  1.161E+00  1.200E+01  6.000E-02  1.387E+00
   1   13    7     6     5    2.2873E+01  1.3819E-02   2.2860E+01  0.000E+00  0.000E+00  0.000E+00  1.02707E+03  1.157E+00  1.200E+01  2.400E-02  1.919E-01
   1   14    9     7     1    1.5000E+02  1.3969E+00   1.4860E+02  0.000E+00  0.000E+00  0.000E+00  1.03987E+03  2.288E+00  5.529E+01  5.593E-01  8.326E-01
   1   13    8     7     2    1.4860E+02  2.0297E+00   1.4657E+02  0.000E+00  0.000E+00  0.000E+00  1.03478E+03  2.278E+00  5.525E+01  6.147E-01  1.101E+00
   1   13    7     7     3    1.4657E+02  1.7850E+00   1.4479E+02  0.000E+00  0.000E+00  0.000E+00  1.02969E+03  2.268E+00  5.521E+01  5.583E-01  1.066E+00
   1   13    6     8     1    1.6765E+02  1.2014E+00   1.6645E+02  0.000E+00  0.000E+00  0.000E+00  1.02481E+03  2.933E+00  4.253E+01  4.334E-01  9.241E-01
   1   13    5     8     2    1.6645E+02  4.2049E-01   1.6603E+02  0.000E+00  0.000E+00  0.000E+00  1.01855E+03  2.928E+00  4.245E+01  4.326E-01  3.240E-01
   1   13    4     8     3    1.6603E+02 -1.5511E+00   1.6758E+02  0.000E+00  0.000E+00  0.000E+00  1.01231E+03  2.931E+00  4.250E+01  4.331E+00 -1.194E-01
   1   13    3     8     4    1.6758E+02 -3.1544E+00   1.7073E+02  0.000E+00  0.000E+00  0.000E+00  1.00607E+03  2.947E+00  4.273E+01  4.354E+00 -2.415E-01
   1   13    2     8     5    1.7073E+02 -2.3642E+00   1.7310E+02  0.000E+00  0.000E+00  0.000E+00  9.99840E+02  2.965E+00  4.299E+01  4.381E+00 -1.799E-01
   1   13    1     8     6    1.7310E+02 -1.9115E+00   1.7501E+02  0.000E+00  0.000E+00  0.000E+00  9.94853E+02  2.978E+00  4.319E+01  2.641E+00 -2.413E-01
   1    8    6     9     1    0.0000E+00  0.0000E+00   0.0000E+00  0.000E+00  0.000E+00  0.000E+00  1.07875E+03  0.000E+00  4.000E+00  0.000E+00  1.000E+00
   1    8    5     9     2    0.0000E+00  0.0000E+00   0.0000E+00  0.000E+00  0.000E+00  0.000E+00  1.07825E+03  0.000E+00  4.000E+00  0.000E+00  1.000E+00





UNSATURATED ZONE PACKAGE VOLUMETRIC BUDGET FOR  TIME STEP    30 STRESS PERIOD   29
  ------------------------------------------------------------------------------



     CUMULATIVE VOLUMES      L**3       RATES FOR THIS TIME STEP      L**3/T
     ------------------                 ------------------------

           IN:                                      IN:
           ---                                      ---
        INFILTRATION =  4269145798.2145          INFILTRATION =           0.8475

          OUT:                                     OUT:
          ----                                     ----
              UZF ET =   872248878.9814                UZF ET =           0.8475
        UZF RECHARGE =  3021374750.3861          UZF RECHARGE =           0.5121

            IN - OUT =   375522168.8471              IN - OUT =          -0.5121

          STORAGE:                                 STORAGE:
          --------                                 --------
      STORAGE CHANGE =   375568048.7799        STORAGE CHANGE =          -0.5121

 PERCENT DISCREPANCY IS DIFFERENCE BETWEEN IN-OUT MINUS CHANGE IN STORAGE
 DIVIDED BY THE AVERAGE OF IN AND OUT TIMES 100

 PERCENT DISCREPANCY =          -0.00     PERCENT DISCREPANCY =           0.00






1
  VOLUMETRIC BUDGET FOR AGRICULTURAL FIELDS AT  END OF TIME STEP   30, STRESS PERIOD  29
  ------------------------------------------------------------------------------

     CUMULATIVE VOLUMES      L**3       RATES FOR THIS TIME STEP      L**3/T
     ------------------                 ------------------------

           IN:                                      IN:
           ---                                      ---
               AG WELLS  =  3700675072.0000                 AG WELLS  =           0.0000
      DIVERSION SEGMENTS =   505989536.0000        DIVERSION SEGMENTS =           0.0000
           GW IRRIGATION =           0.0000             GW IRRIGATION =           0.0000
           SW IRRIGATION =           0.0000             SW IRRIGATION =           0.0000
        SYSTEM LOSSES GW =           0.0000          SYSTEM LOSSES GW =           0.0000
        SYSTEM LOSSES SW =           0.0000          SYSTEM LOSSES SW =           0.0000

                TOTAL IN =  4206664704.0000                  TOTAL IN =           0.0000

          OUT:                                     OUT:
          ----                                     ----
               AG WELLS  =           0.0000                 AG WELLS  =           0.0000
      DIVERSION SEGMENTS =           0.0000        DIVERSION SEGMENTS =           0.0000
           GW IRRIGATION =  3700675072.0000             GW IRRIGATION =           0.0000
           SW IRRIGATION =   505998912.0000             SW IRRIGATION =           0.0000
        SYSTEM LOSSES GW =           0.0000          SYSTEM LOSSES GW =           0.0000
        SYSTEM LOSSES SW =           0.0000          SYSTEM LOSSES SW =           0.0000

               TOTAL OUT =  4206673920.0000                 TOTAL OUT =           0.0000

                IN - OUT =       -9216.0000                  IN - OUT =           0.0000

     PERCENT DISCREPANCY =          -0.00         PERCENT DISCREPANCY =           0.00



1
  VOLUMETRIC BUDGET FOR ENTIRE MODEL AT END OF TIME STEP   30, STRESS PERIOD  29
  ------------------------------------------------------------------------------

     CUMULATIVE VOLUMES      L**3       RATES FOR THIS TIME STEP      L**3/T
     ------------------                 ------------------------

           IN:                                      IN:
           ---                                      ---
             STORAGE     =  3671750656.0000               STORAGE     =           0.9583
       CONSTANT HEAD     =           0.0000         CONSTANT HEAD     =           0.0000
     HEAD DEP BOUNDS     =    21271220.0000       HEAD DEP BOUNDS     =           0.2899
      STREAM LEAKAGE     =   880993728.0000        STREAM LEAKAGE     =          12.5546
        UZF RECHARGE     =  3021374464.0000          UZF RECHARGE     =           0.5121
               GW ET     =           0.0000                 GW ET     =           0.0000
     SURFACE LEAKAGE     =           0.0000       SURFACE LEAKAGE     =           0.0000
           AG WELLS      =           0.0000             AG WELLS      =           0.0000

                TOTAL IN =  7595389952.0000                  TOTAL IN =          14.3150

          OUT:                                     OUT:
          ----                                     ----
             STORAGE     =  3151312640.0000               STORAGE     =           5.0455
       CONSTANT HEAD     =           0.0000         CONSTANT HEAD     =           0.0000
     HEAD DEP BOUNDS     =    21190654.0000       HEAD DEP BOUNDS     =           0.2879
      STREAM LEAKAGE     =   722150272.0000        STREAM LEAKAGE     =           8.9812
        UZF RECHARGE     =           0.0000          UZF RECHARGE     =           0.0000
               GW ET     =           0.0000                 GW ET     =           0.0000
     SURFACE LEAKAGE     =           0.0000       SURFACE LEAKAGE     =           0.0000
           AG WELLS      =  3700675072.0000             AG WELLS      =           0.0000

               TOTAL OUT =  7595328512.0000                 TOTAL OUT =          14.3146

                IN - OUT =       61440.0000                  IN - OUT =       3.7479E-04

     PERCENT DISCREPANCY =           0.00         PERCENT DISCREPANCY =           0.00






         TIME SUMMARY AT END OF TIME STEP   30 IN STRESS PERIOD   29
                    SECONDS     MINUTES      HOURS       DAYS        YEARS
                    -----------------------------------------------------------
   TIME STEP LENGTH  87667.      1461.1      24.352      1.0147     2.77799E-03
 STRESS PERIOD TIME 2.63000E+06  43833.      730.56      30.440     8.33397E-02
         TOTAL TIME 7.37266E+07 1.22878E+06  20480.      853.32      2.3363    
1
1
                            STRESS PERIOD NO.   30, LENGTH =   2630000.    
                            -----------------------------------------------

                              NUMBER OF TIME STEPS =    30

                               MULTIPLIER FOR DELT =     1.000

                            INITIAL TIME STEP SIZE =   87666.66    

 REUSING NON-PARAMETER GHB CELLS FROM LAST STRESS PERIOD

      2 GHB CELLS

 REUSING STREAM SEGMENT DATA FROM LAST STRESS PERIOD



            AREAL INFILTRATION RATE
 READING ON UNIT   19 WITH FORMAT: (FREE)              

            1           2           3           4           5           6           7           8           9          10
 ........................................................................................................................
   1   1.0000E-10  2.0000E-10   0.000       0.000       0.000       0.000       0.000       0.000       0.000       0.000    
   2   2.0000E-10  1.0000E-10  2.0000E-10   0.000       0.000      8.0000E-10  8.0000E-10  5.0000E-10   0.000       0.000    
   3    0.000      5.0000E-10  1.0000E-10  1.0000E-10  8.0000E-10  8.0000E-10  5.0000E-10  5.0000E-10   0.000       0.000    
   4   8.0000E-10  5.0000E-10  1.0000E-10  1.0000E-10  1.0000E-10  1.0000E-10  1.0000E-10  1.0000E-10  2.0000E-10   0.000    
   5   8.0000E-10  5.0000E-10  1.0000E-10  1.0000E-10  1.0000E-10  1.0000E-10  1.0000E-10  1.0000E-10  1.0000E-10  1.0000E-10
   6   8.0000E-10  5.0000E-10  5.0000E-10  2.0000E-10  2.0000E-10  1.0000E-10  1.0000E-10  1.0000E-10  1.0000E-10  5.0000E-10
   7   8.0000E-10  5.0000E-10  5.0000E-10  2.0000E-10  2.0000E-10  1.0000E-10  1.0000E-10  2.0000E-10  2.0000E-10   0.000    
   8    0.000      5.0000E-10  5.0000E-10  2.0000E-10  2.0000E-10  1.0000E-10  1.0000E-10  2.0000E-10  5.0000E-10   0.000    
   9    0.000      5.0000E-10  5.0000E-10  2.0000E-10  2.0000E-10  1.0000E-10  1.0000E-10  2.0000E-10  5.0000E-10   0.000    
  10    0.000      5.0000E-10  5.0000E-10  2.0000E-10  2.0000E-10  1.0000E-10  1.0000E-10  2.0000E-10  5.0000E-10  8.0000E-10
  11    0.000      1.0000E-10  1.0000E-10  1.0000E-10  1.0000E-10  1.0000E-10  1.0000E-10  2.0000E-10  5.0000E-10   0.000    
  12   1.0000E-10  1.0000E-10  1.0000E-10  1.0000E-10  1.0000E-10  1.0000E-10  1.0000E-10  1.0000E-10  2.0000E-10   0.000    
  13   1.0000E-10  1.0000E-10  2.0000E-10  2.0000E-10  2.0000E-10  2.0000E-10  2.0000E-10  1.0000E-10  1.0000E-10   0.000    
  14    0.000      2.0000E-10  5.0000E-10  5.0000E-10  5.0000E-10  5.0000E-10  5.0000E-10  2.0000E-10  1.0000E-10   0.000    
  15    0.000       0.000      8.0000E-10  8.0000E-10  8.0000E-10  8.0000E-10   0.000       0.000       0.000       0.000    

                  ET RATE =  5.000000E-08

 USING ET EXTINCTION DEPTH FROM PREVIOUS STRESS PERIOD. CURRENT PERIOD IS:      30

 USING EXTINCTION WATER CONTENT FROM PREVIOUS STRESS PERIOD. CURRENT PERIOD IS:      30

 USING AIR ENTRY PRESSURE FROM PREVIOUS STRESS PERIOD. CURRENT PERIOD IS:      30

 USING ROOT PRESSURE HEAD FROM PREVIOUS STRESS PERIOD. CURRENT PERIOD IS:      30

 USING ROOT ACTIVITY FROM PREVIOUS STRESS PERIOD. CURRENT PERIOD IS:      30

 PROCESSING AG STRESS PERIOD DATA

 READING AG STRESS PERIOD DATA

 READING IRRIGATION SEGMENT

 READING IRRIGATION WELL

 READING SUPPLEMENTAL WELL

 END PROCESSING AG STRESS PERIOD DATA OPTIONS
 
 SOLVING FOR HEAD 
                                                   Max.-Head-Change                         Max.-Flux-Residual
  Residual-Control   Outer-Iter.   Inner-Iter.     Column Row Layer    Maximum-Head-Change  Column Row Layer    Maximum-Flux-Residual          L2-NORM 
          0                 1           2             4   13     1       0.7014352720E-02       4   13    1         0.4021480443E+00      0.1020076499E+01
          0                 2           2             4    7     1      -0.1862138298E+01       4    8    1        -0.1000106273E+03      0.2449525566E+03
          0                 3           2             4    7     1       0.1258903354E+00       5    7    1         0.6999447535E+01      0.1689600411E+02
          0                 4           2             4    7     1      -0.5009387162E-02       5    7    1        -0.2862854351E+00      0.6910589765E+00
          0                 5           1             4    7     1       0.6176776484E-04       5    7    1         0.3628106782E-02      0.8757803875E-02

    ------------------------------------------------
       NWT REQUIRED            5 OUTER ITERATIONS 
       AND A TOTAL OF          9 INNER ITERATIONS.
    ------------------------------------------------

 NO OUTPUT CONTROL FOR STRESS PERIOD   30   TIME STEP    1
 
 SOLVING FOR HEAD 
                                                   Max.-Head-Change                         Max.-Flux-Residual
  Residual-Control   Outer-Iter.   Inner-Iter.     Column Row Layer    Maximum-Head-Change  Column Row Layer    Maximum-Flux-Residual          L2-NORM 
          0                 1           2             5    6     1       0.5211955356E-01       5    6    1         0.2858324844E+01      0.6116312265E+01
          0                 2           2             4    8     1      -0.1669641094E+00       5    6    1        -0.9177396809E+01      0.2228441158E+02
          0                 3           2             4    7     1       0.1086910590E+00       5    6    1         0.6012786670E+01      0.1471153548E+02
          0                 4           2             4    7     1      -0.1611115388E+00       5    6    1        -0.9137429990E+01      0.2238140323E+02
          0                 5           2             4    7     1       0.1986419384E-02       4    7    1         0.1157726873E+00      0.2836413845E+00
          0                 6           1             4    7     1       0.2921470774E-04       5    8    1         0.1705995536E-02      0.4183127631E-02

    ------------------------------------------------
       NWT REQUIRED            6 OUTER ITERATIONS 
       AND A TOTAL OF         11 INNER ITERATIONS.
    ------------------------------------------------

 NO OUTPUT CONTROL FOR STRESS PERIOD   30   TIME STEP    2
 
 SOLVING FOR HEAD 
                                                   Max.-Head-Change                         Max.-Flux-Residual
  Residual-Control   Outer-Iter.   Inner-Iter.     Column Row Layer    Maximum-Head-Change  Column Row Layer    Maximum-Flux-Residual          L2-NORM 
          0                 1           2             5    6     1       0.5576358744E-01       5    6    1         0.3056492174E+01      0.6595037392E+01
          0                 2           2             4    8     1      -0.1672440061E+00       5    6    1        -0.9197213145E+01      0.2232624788E+02
          0                 3           2             4    7     1       0.1087049472E+00       5    6    1         0.6014177393E+01      0.1471443320E+02
          0                 4           2             4    7     1      -0.1611126882E+00       5    6    1        -0.9137487390E+01      0.2238152245E+02
          0                 5           2             4    7     1       0.1986433550E-02       4    7    1         0.1157730469E+00      0.2836427154E+00
          0                 6           1             4    7     1       0.2921491586E-04       5    8    1         0.1706007088E-02      0.4183151005E-02

    ------------------------------------------------
       NWT REQUIRED            6 OUTER ITERATIONS 
       AND A TOTAL OF         11 INNER ITERATIONS.
    ------------------------------------------------

 NO OUTPUT CONTROL FOR STRESS PERIOD   30   TIME STEP    3
 
 SOLVING FOR HEAD 
                                                   Max.-Head-Change                         Max.-Flux-Residual
  Residual-Control   Outer-Iter.   Inner-Iter.     Column Row Layer    Maximum-Head-Change  Column Row Layer    Maximum-Flux-Residual          L2-NORM 
          0                 1           2             5    6     1       0.5924831927E-01       5    6    1         0.3245870682E+01      0.7056227960E+01
          0                 2           2             5    6     1      -0.1675206946E+00       5    6    1        -0.9216150581E+01      0.2236680605E+02
          0                 3           2             4    7     1       0.1087189888E+00       5    6    1         0.6015503039E+01      0.1471723781E+02
          0                 4           2             4    7     1      -0.1611138459E+00       5    6    1        -0.9137542022E+01      0.2238163773E+02
          0                 5           2             4    7     1       0.1986447824E-02       4    7    1         0.1157734327E+00      0.2836439556E+00
          0                 6           1             4    7     1       0.2921512600E-04       5    8    1         0.1706020381E-02      0.4183169075E-02

    ------------------------------------------------
       NWT REQUIRED            6 OUTER ITERATIONS 
       AND A TOTAL OF         11 INNER ITERATIONS.
    ------------------------------------------------

 NO OUTPUT CONTROL FOR STRESS PERIOD   30   TIME STEP    4
 
 SOLVING FOR HEAD 
                                                   Max.-Head-Change                         Max.-Flux-Residual
  Residual-Control   Outer-Iter.   Inner-Iter.     Column Row Layer    Maximum-Head-Change  Column Row Layer    Maximum-Flux-Residual          L2-NORM 
          0                 1           2             5    6     1       0.6258279828E-01       5    6    1         0.3426964064E+01      0.7500557895E+01
          0                 2           2             5    6     1      -0.1678452205E+00       5    6    1        -0.9234259490E+01      0.2240613733E+02
          0                 3           2             4    7     1       0.1087331668E+00       5    6    1         0.6016770688E+01      0.1471995649E+02
          0                 4           2             4    7     1      -0.1611150212E+00       5    6    1        -0.9137594258E+01      0.2238174941E+02
          0                 5           2             4    7     1       0.1986462313E-02       4    7    1         0.1157738227E+00      0.2836450994E+00
          0                 6           1             4    7     1       0.2921533895E-04       5    8    1         0.1706031032E-02      0.4183180850E-02

    ------------------------------------------------
       NWT REQUIRED            6 OUTER ITERATIONS 
       AND A TOTAL OF         11 INNER ITERATIONS.
    ------------------------------------------------

 NO OUTPUT CONTROL FOR STRESS PERIOD   30   TIME STEP    5
 
 SOLVING FOR HEAD 
                                                   Max.-Head-Change                         Max.-Flux-Residual
  Residual-Control   Outer-Iter.   Inner-Iter.     Column Row Layer    Maximum-Head-Change  Column Row Layer    Maximum-Flux-Residual          L2-NORM 
          0                 1           2             5    6     1       0.6577589237E-01       5    6    1         0.3600266117E+01      0.7928658461E+01
          0                 2           2             5    6     1      -0.1681559990E+00       5    6    1        -0.9251589254E+01      0.2244429224E+02
          0                 3           2             4    7     1       0.1087474514E+00       5    6    1         0.6017983799E+01      0.1472259322E+02
          0                 4           2             4    7     1      -0.1611162114E+00       5    6    1        -0.9137644240E+01      0.2238185774E+02
          0                 5           2             4    7     1       0.1986476986E-02       4    7    1         0.1157742162E+00      0.2836462674E+00
          0                 6           1             4    7     1       0.2921555469E-04       5    8    1         0.1706041198E-02      0.4183194459E-02

    ------------------------------------------------
       NWT REQUIRED            6 OUTER ITERATIONS 
       AND A TOTAL OF         11 INNER ITERATIONS.
    ------------------------------------------------

 NO OUTPUT CONTROL FOR STRESS PERIOD   30   TIME STEP    6
 
 SOLVING FOR HEAD 
                                                   Max.-Head-Change                         Max.-Flux-Residual
  Residual-Control   Outer-Iter.   Inner-Iter.     Column Row Layer    Maximum-Head-Change  Column Row Layer    Maximum-Flux-Residual          L2-NORM 
          0                 1           2             5    6     1       0.6883528584E-01       5    6    1         0.3766203893E+01      0.8341230451E+01
          0                 2           2             5    6     1      -0.1684537778E+00       5    6    1        -0.9268182581E+01      0.2248131806E+02
          0                 3           2             4    7     1       0.1087618185E+00       5    6    1         0.6019145360E+01      0.1472515214E+02
          0                 4           2             4    7     1      -0.1611174143E+00       5    6    1        -0.9137692094E+01      0.2238196285E+02
          0                 5           2             4    7     1       0.1986491815E-02       4    7    1         0.1157746125E+00      0.2836474462E+00
          0                 6           1             4    7     1       0.2921577267E-04       5    8    1         0.1706050840E-02      0.4183209079E-02

    ------------------------------------------------
       NWT REQUIRED            6 OUTER ITERATIONS 
       AND A TOTAL OF         11 INNER ITERATIONS.
    ------------------------------------------------

 NO OUTPUT CONTROL FOR STRESS PERIOD   30   TIME STEP    7
 
 SOLVING FOR HEAD 
                                                   Max.-Head-Change                         Max.-Flux-Residual
  Residual-Control   Outer-Iter.   Inner-Iter.     Column Row Layer    Maximum-Head-Change  Column Row Layer    Maximum-Flux-Residual          L2-NORM 
          0                 1           2             5    6     1       0.7176843643E-01       5    6    1         0.3925192234E+01      0.8738985970E+01
          0                 2           2             5    6     1      -0.1687392822E+00       5    6    1        -0.9284080958E+01      0.2251726081E+02
          0                 3           2             4    7     1       0.1087762453E+00       5    6    1         0.6020258274E+01      0.1472763648E+02
          0                 4           2             4    7     1      -0.1611186280E+00       5    6    1        -0.9137737938E+01      0.2238206489E+02
          0                 5           2             4    7     1       0.1986506777E-02       4    7    1         0.1157750110E+00      0.2836485744E+00
          0                 6           1             4    7     1       0.2921599301E-04       5    8    1         0.1706060011E-02      0.4183222810E-02

    ------------------------------------------------
       NWT REQUIRED            6 OUTER ITERATIONS 
       AND A TOTAL OF         11 INNER ITERATIONS.
    ------------------------------------------------

 NO OUTPUT CONTROL FOR STRESS PERIOD   30   TIME STEP    8
 
 SOLVING FOR HEAD 
                                                   Max.-Head-Change                         Max.-Flux-Residual
  Residual-Control   Outer-Iter.   Inner-Iter.     Column Row Layer    Maximum-Head-Change  Column Row Layer    Maximum-Flux-Residual          L2-NORM 
          0                 1           2             5    6     1       0.7458260277E-01       5    6    1         0.4077634208E+01      0.9122618602E+01
          0                 2           2             5    6     1      -0.1690132183E+00       5    6    1        -0.9299324694E+01      0.2255216296E+02
          0                 3           2             4    7     1       0.1087907094E+00       5    6    1         0.6021325364E+01      0.1473004926E+02
          0                 4           2             4    7     1      -0.1611198504E+00       5    6    1        -0.9137781889E+01      0.2238216397E+02
          0                 5           2             4    7     1       0.1986521845E-02       4    7    1         0.1157754110E+00      0.2836496933E+00
          0                 6           1             4    7     1       0.2921621435E-04       5    8    1         0.1706068766E-02      0.4183237941E-02

    ------------------------------------------------
       NWT REQUIRED            6 OUTER ITERATIONS 
       AND A TOTAL OF         11 INNER ITERATIONS.
    ------------------------------------------------

 NO OUTPUT CONTROL FOR STRESS PERIOD   30   TIME STEP    9
 
 SOLVING FOR HEAD 
                                                   Max.-Head-Change                         Max.-Flux-Residual
  Residual-Control   Outer-Iter.   Inner-Iter.     Column Row Layer    Maximum-Head-Change  Column Row Layer    Maximum-Flux-Residual          L2-NORM 
          0                 1           2             5    6     1       0.7728397552E-01       5    6    1         0.4223873459E+01      0.9492807827E+01
          0                 2           2             5    6     1      -0.1692761883E+00       5    6    1        -0.9313948154E+01      0.2258606758E+02
          0                 3           2             4    7     1       0.1088051917E+00       5    6    1         0.6022349036E+01      0.1473239350E+02
          0                 4           2             4    7     1      -0.1611210798E+00       5    6    1        -0.9137824047E+01      0.2238226023E+02
          0                 5           2             4    7     1       0.1986537000E-02       4    7    1         0.1157758119E+00      0.2836507827E+00
          0                 6           1             4    7     1       0.2921643738E-04       5    8    1         0.1706077110E-02      0.4183250859E-02

    ------------------------------------------------
       NWT REQUIRED            6 OUTER ITERATIONS 
       AND A TOTAL OF         11 INNER ITERATIONS.
    ------------------------------------------------

 NO OUTPUT CONTROL FOR STRESS PERIOD   30   TIME STEP   10
 
 SOLVING FOR HEAD 
                                                   Max.-Head-Change                         Max.-Flux-Residual
  Residual-Control   Outer-Iter.   Inner-Iter.     Column Row Layer    Maximum-Head-Change  Column Row Layer    Maximum-Flux-Residual          L2-NORM 
          0                 1           2             5    6     1       0.7987877593E-01       5    6    1         0.4364255548E+01      0.9850187260E+01
          0                 2           2             5    6     1      -0.1695287973E+00       5    6    1        -0.9327985896E+01      0.2261900916E+02
          0                 3           2             4    7     1       0.1088196729E+00       5    6    1         0.6023331707E+01      0.1473467183E+02
          0                 4           2             4    7     1      -0.1611223144E+00       5    6    1        -0.9137864511E+01      0.2238235376E+02
          0                 5           2             4    7     1       0.1986552218E-02       4    7    1         0.1157762132E+00      0.2836518435E+00
          0                 6           1             4    7     1       0.2921666130E-04       5    8    1         0.1706085069E-02      0.4183264211E-02

    ------------------------------------------------
       NWT REQUIRED            6 OUTER ITERATIONS 
       AND A TOTAL OF         11 INNER ITERATIONS.
    ------------------------------------------------

 NO OUTPUT CONTROL FOR STRESS PERIOD   30   TIME STEP   11
 
 SOLVING FOR HEAD 
                                                   Max.-Head-Change                         Max.-Flux-Residual
  Residual-Control   Outer-Iter.   Inner-Iter.     Column Row Layer    Maximum-Head-Change  Column Row Layer    Maximum-Flux-Residual          L2-NORM 
          0                 1           2             5    6     1       0.8237282075E-01       5    6    1         0.4499103059E+01      0.1019538997E+02
          0                 2           2             5    6     1      -0.1697716110E+00       5    6    1        -0.9341470180E+01      0.2265103670E+02
          0                 3           2             4    7     1       0.1088341370E+00       5    6    1         0.6024275636E+01      0.1473688697E+02
          0                 4           2             4    7     1      -0.1611235527E+00       5    6    1        -0.9137903375E+01      0.2238244470E+02
          0                 5           2             4    7     1       0.1986567482E-02       4    7    1         0.1157766143E+00      0.2836528771E+00
          0                 6           1             4    7     1       0.2921688578E-04       5    8    1         0.1706092679E-02      0.4183277175E-02

    ------------------------------------------------
       NWT REQUIRED            6 OUTER ITERATIONS 
       AND A TOTAL OF         11 INNER ITERATIONS.
    ------------------------------------------------

 NO OUTPUT CONTROL FOR STRESS PERIOD   30   TIME STEP   12
 
 SOLVING FOR HEAD 
                                                   Max.-Head-Change                         Max.-Flux-Residual
  Residual-Control   Outer-Iter.   Inner-Iter.     Column Row Layer    Maximum-Head-Change  Column Row Layer    Maximum-Flux-Residual          L2-NORM 
          0                 1           2             5    6     1       0.8477140789E-01       5    6    1         0.4628709430E+01      0.1052898421E+02
          0                 2           2             5    6     1      -0.1700051448E+00       5    6    1        -0.9354430352E+01      0.2268217488E+02
          0                 3           2             4    7     1       0.1088485675E+00       5    6    1         0.6025182877E+01      0.1473904135E+02
          0                 4           2             4    7     1      -0.1611247932E+00       5    6    1        -0.9137940725E+01      0.2238253312E+02
          0                 5           2             4    7     1       0.1986582773E-02       4    7    1         0.1157770149E+00      0.2836538839E+00
          0                 6           1             4    7     1       0.2921711048E-04       5    8    1         0.1706099930E-02      0.4183289947E-02

    ------------------------------------------------
       NWT REQUIRED            6 OUTER ITERATIONS 
       AND A TOTAL OF         11 INNER ITERATIONS.
    ------------------------------------------------

 NO OUTPUT CONTROL FOR STRESS PERIOD   30   TIME STEP   13
 
 SOLVING FOR HEAD 
                                                   Max.-Head-Change                         Max.-Flux-Residual
  Residual-Control   Outer-Iter.   Inner-Iter.     Column Row Layer    Maximum-Head-Change  Column Row Layer    Maximum-Flux-Residual          L2-NORM 
          0                 1           2             5    6     1       0.8707963989E-01       5    6    1         0.4753357554E+01      0.1085153382E+02
          0                 2           2             5    6     1      -0.1702298949E+00       5    6    1        -0.9366894700E+01      0.2271246236E+02
          0                 3           2             4    7     1       0.1088629512E+00       5    6    1         0.6026055411E+01      0.1474113739E+02
          0                 4           2             4    7     1      -0.1611260348E+00       5    6    1        -0.9137976641E+01      0.2238261914E+02
          0                 5           2             4    7     1       0.1986598076E-02       4    7    1         0.1157774144E+00      0.2836548656E+00
          0                 6           1             4    7     1       0.2921733563E-04       5    8    1         0.1706106885E-02      0.4183302881E-02

    ------------------------------------------------
       NWT REQUIRED            6 OUTER ITERATIONS 
       AND A TOTAL OF         11 INNER ITERATIONS.
    ------------------------------------------------

 NO OUTPUT CONTROL FOR STRESS PERIOD   30   TIME STEP   14
 
 SOLVING FOR HEAD 
                                                   Max.-Head-Change                         Max.-Flux-Residual
  Residual-Control   Outer-Iter.   Inner-Iter.     Column Row Layer    Maximum-Head-Change  Column Row Layer    Maximum-Flux-Residual          L2-NORM 
          0                 1           2             5    6     1       0.8930214700E-01       5    6    1         0.4873303843E+01      0.1116355888E+02
          0                 2           2             5    6     1      -0.1704463116E+00       5    6    1        -0.9378888869E+01      0.2274193091E+02
          0                 3           2             4    7     1       0.1088772741E+00       5    6    1         0.6026895032E+01      0.1474317730E+02
          0                 4           2             4    7     1      -0.1611272760E+00       5    6    1        -0.9138011197E+01      0.2238270285E+02
          0                 5           2             4    7     1       0.1986613376E-02       4    7    1         0.1157778126E+00      0.2836558226E+00
          0                 6           1             4    7     1       0.2921756056E-04       5    8    1         0.1706113551E-02      0.4183314007E-02

    ------------------------------------------------
       NWT REQUIRED            6 OUTER ITERATIONS 
       AND A TOTAL OF         11 INNER ITERATIONS.
    ------------------------------------------------

 NO OUTPUT CONTROL FOR STRESS PERIOD   30   TIME STEP   15
 
 SOLVING FOR HEAD 
                                                   Max.-Head-Change                         Max.-Flux-Residual
  Residual-Control   Outer-Iter.   Inner-Iter.     Column Row Layer    Maximum-Head-Change  Column Row Layer    Maximum-Flux-Residual          L2-NORM 
          0                 1           2             5    6     1       0.9144356135E-01       5    6    1         0.4988804729E+01      0.1146556491E+02
          0                 2           2             5    6     1      -0.1706548456E+00       5    6    1        -0.9390438502E+01      0.2277060961E+02
          0                 3           2             4    7     1       0.1088915248E+00       5    6    1         0.6027703535E+01      0.1474516328E+02
          0                 4           2             4    7     1      -0.1611285160E+00       5    6    1        -0.9138044469E+01      0.2238278433E+02
          0                 5           2             4    7     1       0.1986628660E-02       4    7    1         0.1157782089E+00      0.2836567499E+00
          0                 6           1             4    7     1       0.2921778560E-04       5    8    1         0.1706119884E-02      0.4183325794E-02

    ------------------------------------------------
       NWT REQUIRED            6 OUTER ITERATIONS 
       AND A TOTAL OF         11 INNER ITERATIONS.
    ------------------------------------------------

 NO OUTPUT CONTROL FOR STRESS PERIOD   30   TIME STEP   16
 
 SOLVING FOR HEAD 
                                                   Max.-Head-Change                         Max.-Flux-Residual
  Residual-Control   Outer-Iter.   Inner-Iter.     Column Row Layer    Maximum-Head-Change  Column Row Layer    Maximum-Flux-Residual          L2-NORM 
          0                 1           2             5    6     1       0.9350778306E-01       5    6    1         0.5100075906E+01      0.1175806818E+02
          0                 2           2             5    6     1      -0.1708558759E+00       5    6    1        -0.9401565168E+01      0.2279853653E+02
          0                 3           2             4    7     1       0.1089056917E+00       5    6    1         0.6028482430E+01      0.1474709731E+02
          0                 4           2             4    7     1      -0.1611297534E+00       5    6    1        -0.9138076519E+01      0.2238286369E+02
          0                 5           2             4    7     1       0.1986643911E-02       4    7    1         0.1157786032E+00      0.2836576603E+00
          0                 6           1             4    7     1       0.2921800974E-04       5    8    1         0.1706125975E-02      0.4183337071E-02

    ------------------------------------------------
       NWT REQUIRED            6 OUTER ITERATIONS 
       AND A TOTAL OF         11 INNER ITERATIONS.
    ------------------------------------------------

 NO OUTPUT CONTROL FOR STRESS PERIOD   30   TIME STEP   17
 
 SOLVING FOR HEAD 
                                                   Max.-Head-Change                         Max.-Flux-Residual
  Residual-Control   Outer-Iter.   Inner-Iter.     Column Row Layer    Maximum-Head-Change  Column Row Layer    Maximum-Flux-Residual          L2-NORM 
          0                 1           2             5    6     1       0.9549890987E-01       5    6    1         0.5207344112E+01      0.1204150442E+02
          0                 2           2             5    6     1      -0.1710498013E+00       5    6    1        -0.9412291543E+01      0.2282573137E+02
          0                 3           2             4    7     1       0.1089197658E+00       5    6    1         0.6029233305E+01      0.1474898137E+02
          0                 4           2             4    7     1      -0.1611309874E+00       5    6    1        -0.9138107411E+01      0.2238294098E+02
          0                 5           2             4    7     1       0.1986659121E-02       4    7    1         0.1157789950E+00      0.2836585488E+00
          0                 6           1             4    7     1       0.2921823333E-04       5    8    1         0.1706131820E-02      0.4183348150E-02

    ------------------------------------------------
       NWT REQUIRED            6 OUTER ITERATIONS 
       AND A TOTAL OF         11 INNER ITERATIONS.
    ------------------------------------------------

 NO OUTPUT CONTROL FOR STRESS PERIOD   30   TIME STEP   18
 
 SOLVING FOR HEAD 
                                                   Max.-Head-Change                         Max.-Flux-Residual
  Residual-Control   Outer-Iter.   Inner-Iter.     Column Row Layer    Maximum-Head-Change  Column Row Layer    Maximum-Flux-Residual          L2-NORM 
          0                 1           2             5    6     1       0.9742048861E-01       5    6    1         0.5310805502E+01      0.1231623338E+02
          0                 2           2             5    6     1      -0.1712369665E+00       5    6    1        -0.9422637242E+01      0.2285222267E+02
          0                 3           2             4    7     1       0.1089337372E+00       5    6    1         0.6029957532E+01      0.1475081722E+02
          0                 4           2             4    7     1      -0.1611322170E+00       5    6    1        -0.9138137203E+01      0.2238301628E+02
          0                 5           2             4    7     1       0.1986674276E-02       4    7    1         0.1157793842E+00      0.2836594162E+00
          0                 6           1             4    7     1       0.2921845635E-04       5    8    1         0.1706137419E-02      0.4183358794E-02

    ------------------------------------------------
       NWT REQUIRED            6 OUTER ITERATIONS 
       AND A TOTAL OF         11 INNER ITERATIONS.
    ------------------------------------------------

 NO OUTPUT CONTROL FOR STRESS PERIOD   30   TIME STEP   19
 
 SOLVING FOR HEAD 
                                                   Max.-Head-Change                         Max.-Flux-Residual
  Residual-Control   Outer-Iter.   Inner-Iter.     Column Row Layer    Maximum-Head-Change  Column Row Layer    Maximum-Flux-Residual          L2-NORM 
          0                 1           2             5    6     1       0.9927629643E-01       5    6    1         0.5410668474E+01      0.1258266428E+02
          0                 2           2             5    6     1      -0.1714177390E+00       5    6    1        -0.9432623106E+01      0.2287803778E+02
          0                 3           2             4    7     1       0.1089475988E+00       5    6    1         0.6030656570E+01      0.1475260672E+02
          0                 4           2             4    7     1      -0.1611334417E+00       5    6    1        -0.9138165956E+01      0.2238308968E+02
          0                 5           2             4    7     1       0.1986689370E-02       4    7    1         0.1157797706E+00      0.2836602632E+00
          0                 6           1             4    7     1       0.2921867848E-04       5    8    1         0.1706142790E-02      0.4183369168E-02

    ------------------------------------------------
       NWT REQUIRED            6 OUTER ITERATIONS 
       AND A TOTAL OF         11 INNER ITERATIONS.
    ------------------------------------------------

 NO OUTPUT CONTROL FOR STRESS PERIOD   30   TIME STEP   20
 
 SOLVING FOR HEAD 
                                                   Max.-Head-Change                         Max.-Flux-Residual
  Residual-Control   Outer-Iter.   Inner-Iter.     Column Row Layer    Maximum-Head-Change  Column Row Layer    Maximum-Flux-Residual          L2-NORM 
          0                 1           2             5    6     1       0.1010691337E+00       5    6    1         0.5507088098E+01      0.1284115895E+02
          0                 2           2             5    6     1      -0.1715923909E+00       5    6    1        -0.9442264642E+01      0.2290319943E+02
          0                 3           2             4    7     1       0.1089613427E+00       5    6    1         0.6031331504E+01      0.1475435145E+02
          0                 4           2             4    7     1      -0.1611346605E+00       5    6    1        -0.9138193713E+01      0.2238316123E+02
          0                 5           2             4    7     1       0.1986704393E-02       4    7    1         0.1157801538E+00      0.2836610903E+00
          0                 6           1             4    7     1       0.2921889904E-04       5    8    1         0.1706147956E-02      0.4183379213E-02

    ------------------------------------------------
       NWT REQUIRED            6 OUTER ITERATIONS 
       AND A TOTAL OF         11 INNER ITERATIONS.
    ------------------------------------------------

 NO OUTPUT CONTROL FOR STRESS PERIOD   30   TIME STEP   21
 
 SOLVING FOR HEAD 
                                                   Max.-Head-Change                         Max.-Flux-Residual
  Residual-Control   Outer-Iter.   Inner-Iter.     Column Row Layer    Maximum-Head-Change  Column Row Layer    Maximum-Flux-Residual          L2-NORM 
          0                 1           2             5    6     1       0.1028025253E+00       5    8    1         0.5603368394E+01      0.1309208953E+02
          0                 2           2             5    6     1      -0.1717612652E+00       5    8    1        -0.9451891464E+01      0.2292772797E+02
          0                 3           2             4    7     1       0.1089749620E+00       5    8    1         0.6032005566E+01      0.1475605312E+02
          0                 4           2             4    7     1      -0.1611358729E+00       5    6    1        -0.9138220531E+01      0.2238323100E+02
          0                 5           2             4    7     1       0.1986719337E-02       4    7    1         0.1157805336E+00      0.2836618892E+00
          0                 6           1             4    7     1       0.2921911904E-04       5    8    1         0.1706152942E-02      0.4183389425E-02

    ------------------------------------------------
       NWT REQUIRED            6 OUTER ITERATIONS 
       AND A TOTAL OF         11 INNER ITERATIONS.
    ------------------------------------------------

 NO OUTPUT CONTROL FOR STRESS PERIOD   30   TIME STEP   22
 
 SOLVING FOR HEAD 
                                                   Max.-Head-Change                         Max.-Flux-Residual
  Residual-Control   Outer-Iter.   Inner-Iter.     Column Row Layer    Maximum-Head-Change  Column Row Layer    Maximum-Flux-Residual          L2-NORM 
          0                 1           2             5    6     1       0.1044790390E+00       5    8    1         0.5697209696E+01      0.1333585223E+02
          0                 2           2             5    6     1      -0.1719246114E+00       5    8    1        -0.9461275240E+01      0.2295166137E+02
          0                 3           2             4    7     1       0.1089884522E+00       5    8    1         0.6032662452E+01      0.1475771327E+02
          0                 4           2             4    7     1      -0.1611370783E+00       5    6    1        -0.9138246452E+01      0.2238329908E+02
          0                 5           2             4    7     1       0.1986734193E-02       4    7    1         0.1157809100E+00      0.2836626777E+00
          0                 6           1             4    7     1       0.2921933736E-04       5    8    1         0.1706157713E-02      0.4183399066E-02

    ------------------------------------------------
       NWT REQUIRED            6 OUTER ITERATIONS 
       AND A TOTAL OF         11 INNER ITERATIONS.
    ------------------------------------------------

 NO OUTPUT CONTROL FOR STRESS PERIOD   30   TIME STEP   23
 
 SOLVING FOR HEAD 
                                                   Max.-Head-Change                         Max.-Flux-Residual
  Residual-Control   Outer-Iter.   Inner-Iter.     Column Row Layer    Maximum-Head-Change  Column Row Layer    Maximum-Flux-Residual          L2-NORM 
          0                 1           2             5    6     1       0.1061016836E+00       5    8    1         0.5787727061E+01      0.1357279824E+02
          0                 2           2             5    6     1      -0.1720827221E+00       5    8    1        -0.9470326629E+01      0.2297500458E+02
          0                 3           2             4    7     1       0.1090018061E+00       5    8    1         0.6033296070E+01      0.1475933324E+02
          0                 4           2             4    7     1      -0.1611382759E+00       5    6    1        -0.9138271523E+01      0.2238336550E+02
          0                 5           2             4    7     1       0.1986748953E-02       4    7    1         0.1157812827E+00      0.2836634493E+00
          0                 6           1             4    7     1       0.2921955456E-04       5    8    1         0.1706162315E-02      0.4183408218E-02

    ------------------------------------------------
       NWT REQUIRED            6 OUTER ITERATIONS 
       AND A TOTAL OF         11 INNER ITERATIONS.
    ------------------------------------------------

 NO OUTPUT CONTROL FOR STRESS PERIOD   30   TIME STEP   24
 
 SOLVING FOR HEAD 
                                                   Max.-Head-Change                         Max.-Flux-Residual
  Residual-Control   Outer-Iter.   Inner-Iter.     Column Row Layer    Maximum-Head-Change  Column Row Layer    Maximum-Flux-Residual          L2-NORM 
          0                 1           2             5    6     1       0.1076726942E+00       5    8    1         0.5875095490E+01      0.1380308563E+02
          0                 2           2             5    6     1      -0.1722358147E+00       5    8    1        -0.9479063132E+01      0.2299778240E+02
          0                 3           2             4    7     1       0.1090150212E+00       5    8    1         0.6033907647E+01      0.1476091442E+02
          0                 4           2             4    7     1      -0.1611394654E+00       5    6    1        -0.9138295779E+01      0.2238343032E+02
          0                 5           2             4    7     1       0.1986763615E-02       4    7    1         0.1157816516E+00      0.2836642035E+00
          0                 6           1             4    7     1       0.2921976996E-04       5    8    1         0.1706166730E-02      0.4183444958E-02

    ------------------------------------------------
       NWT REQUIRED            6 OUTER ITERATIONS 
       AND A TOTAL OF         11 INNER ITERATIONS.
    ------------------------------------------------

 NO OUTPUT CONTROL FOR STRESS PERIOD   30   TIME STEP   25
 
 SOLVING FOR HEAD 
                                                   Max.-Head-Change                         Max.-Flux-Residual
  Residual-Control   Outer-Iter.   Inner-Iter.     Column Row Layer    Maximum-Head-Change  Column Row Layer    Maximum-Flux-Residual          L2-NORM 
          0                 1           2             5    6     1       0.1091947702E+00       5    8    1         0.5959478466E+01      0.1402700335E+02
          0                 2           2             5    6     1      -0.1723843997E+00       5    8    1        -0.9486584264E+01      0.2302000920E+02
          0                 3           2             4    7     1       0.1090281234E+00       5    8    1         0.6034434165E+01      0.1476245814E+02
          0                 4           2             4    7     1      -0.1611406711E+00       5    6    1        -0.9138319264E+01      0.2238349360E+02
          0                 5           2             4    7     1       0.1986778484E-02       4    7    1         0.1157820170E+00      0.2836649412E+00
          0                 6           1             4    7     1       0.2921998873E-04       5    8    1         0.1706170315E-02      0.4183426041E-02

    ------------------------------------------------
       NWT REQUIRED            6 OUTER ITERATIONS 
       AND A TOTAL OF         11 INNER ITERATIONS.
    ------------------------------------------------

 NO OUTPUT CONTROL FOR STRESS PERIOD   30   TIME STEP   26
 
 SOLVING FOR HEAD 
                                                   Max.-Head-Change                         Max.-Flux-Residual
  Residual-Control   Outer-Iter.   Inner-Iter.     Column Row Layer    Maximum-Head-Change  Column Row Layer    Maximum-Flux-Residual          L2-NORM 
          0                 1           2             5    8     1       0.1107085443E+00       5    8    1         0.6041927957E+01      0.1424490332E+02
          0                 2           2             5    7     1      -0.1725307223E+00       5    8    1        -0.9495746787E+01      0.2304172108E+02
          0                 3           2             4    7     1       0.1090410272E+00       5    8    1         0.6035075543E+01      0.1476396582E+02
          0                 4           2             4    7     1      -0.1611418422E+00       5    6    1        -0.9138342010E+01      0.2238355540E+02
          0                 5           2             4    7     1       0.1986792917E-02       4    7    1         0.1157823779E+00      0.2836656617E+00
          0                 6           1             4    7     1       0.2922020134E-04       5    8    1         0.1706174969E-02      0.4183434679E-02

    ------------------------------------------------
       NWT REQUIRED            6 OUTER ITERATIONS 
       AND A TOTAL OF         11 INNER ITERATIONS.
    ------------------------------------------------

 NO OUTPUT CONTROL FOR STRESS PERIOD   30   TIME STEP   27
 
 SOLVING FOR HEAD 
                                                   Max.-Head-Change                         Max.-Flux-Residual
  Residual-Control   Outer-Iter.   Inner-Iter.     Column Row Layer    Maximum-Head-Change  Column Row Layer    Maximum-Flux-Residual          L2-NORM 
          0                 1           2             5    8     1       0.1121921687E+00       5    8    1         0.6121626425E+01      0.1445692772E+02
          0                 2           2             5    7     1      -0.1726964562E+00       5    8    1        -0.9503716303E+01      0.2306292512E+02
          0                 3           2             4    7     1       0.1090537953E+00       5    8    1         0.6035633433E+01      0.1476543850E+02
          0                 4           2             4    7     1      -0.1611430044E+00       5    6    1        -0.9138364048E+01      0.2238361577E+02
          0                 5           2             4    7     1       0.1986807242E-02       4    7    1         0.1157827346E+00      0.2836663802E+00
          0                 6           1             4    7     1       0.2922041181E-04       5    8    1         0.1706178114E-02      0.4183444080E-02

    ------------------------------------------------
       NWT REQUIRED            6 OUTER ITERATIONS 
       AND A TOTAL OF         11 INNER ITERATIONS.
    ------------------------------------------------

 NO OUTPUT CONTROL FOR STRESS PERIOD   30   TIME STEP   28
 
 SOLVING FOR HEAD 
                                                   Max.-Head-Change                         Max.-Flux-Residual
  Residual-Control   Outer-Iter.   Inner-Iter.     Column Row Layer    Maximum-Head-Change  Column Row Layer    Maximum-Flux-Residual          L2-NORM 
          0                 1           2             5    8     1       0.1136285651E+00       5    8    1         0.6198716007E+01      0.1466324869E+02
          0                 2           2             5    7     1      -0.1728586993E+00       5    8    1        -0.9511424948E+01      0.2308362474E+02
          0                 3           2             4    7     1       0.1090664098E+00       5    8    1         0.6036173054E+01      0.1476687737E+02
          0                 4           2             4    7     1      -0.1611441570E+00       5    6    1        -0.9138385416E+01      0.2238367474E+02
          0                 5           2             4    7     1       0.1986821447E-02       4    7    1         0.1157830871E+00      0.2836670808E+00
          0                 6           1             4    7     1       0.2922062072E-04       5    8    1         0.1706181458E-02      0.4183450698E-02

    ------------------------------------------------
       NWT REQUIRED            6 OUTER ITERATIONS 
       AND A TOTAL OF         11 INNER ITERATIONS.
    ------------------------------------------------

 NO OUTPUT CONTROL FOR STRESS PERIOD   30   TIME STEP   29
 
 SOLVING FOR HEAD 
                                                   Max.-Head-Change                         Max.-Flux-Residual
  Residual-Control   Outer-Iter.   Inner-Iter.     Column Row Layer    Maximum-Head-Change  Column Row Layer    Maximum-Flux-Residual          L2-NORM 
          0                 1           2             5    8     1       0.1150198531E+00       5    8    1         0.6273334460E+01      0.1486411812E+02
          0                 2           2             5    7     1      -0.1730175239E+00       5    8    1        -0.9518886488E+01      0.2310385165E+02
          0                 3           2             4    7     1       0.1090788691E+00       5    8    1         0.6036695378E+01      0.1476828364E+02
          0                 4           2             4    7     1      -0.1611452997E+00       5    6    1        -0.9138406143E+01      0.2238373236E+02
          0                 5           2             4    7     1       0.1986835531E-02       4    7    1         0.1157834352E+00      0.2836677574E+00
          0                 6           1             4    7     1       0.2922082795E-04       5    8    1         0.1706185179E-02      0.4183458574E-02

    ------------------------------------------------
       NWT REQUIRED            6 OUTER ITERATIONS 
       AND A TOTAL OF         11 INNER ITERATIONS.
    ------------------------------------------------

 NO OUTPUT CONTROL FOR STRESS PERIOD   30   TIME STEP   30



 STREAM LISTING     PERIOD     30   STEP       30

 LAYER ROW COL. STREAM  RCH.  FLOW INTO     FLOW TO   FLOW OUT OF   OVRLND.     DIRECT     STREAM       STREAM     STREAM     STREAM   STREAMBED  STREAMBED
                SEG.NO.  NO.  STRM. RCH.    AQUIFER    STRM. RCH.    RUNOFF     PRECIP       ET          HEAD       DEPTH      WIDTH   CONDCTNC.   GRADIENT

   1    1    1     1     1    3.7124E+01  2.9395E-01   3.6830E+01  0.000E+00  0.000E+00  0.000E+00  1.09436E+03  1.309E+00  1.516E+01  6.821E-02  1.436E+00
   1    2    2     1     2    3.6830E+01  4.5517E-01   3.6375E+01  0.000E+00  0.000E+00  0.000E+00  1.08936E+03  1.306E+00  1.510E+01  1.057E-01  1.435E+00
   1    3    3     1     3    3.6375E+01  3.8813E-01   3.5987E+01  0.000E+00  0.000E+00  0.000E+00  1.08372E+03  1.303E+00  1.503E+01  9.020E-02  1.434E+00
   1    3    4     1     4    3.5987E+01  3.5736E-01   3.5629E+01  0.000E+00  0.000E+00  0.000E+00  1.07871E+03  1.300E+00  1.497E+01  8.311E-02  1.433E+00
   1    4    5     2     1    3.3629E+01  3.4618E-01   3.3283E+01  0.000E+00  0.000E+00  0.000E+00  1.07337E+03  1.438E+00  1.200E+01  7.800E-02  1.479E+00
   1    5    6     2     2    3.3283E+01  2.6582E-01   3.3017E+01  0.000E+00  0.000E+00  0.000E+00  1.06794E+03  1.430E+00  1.200E+01  6.000E-02  1.477E+00
   1    6    6     2     3    3.3017E+01  2.6541E-01   3.2752E+01  0.000E+00  0.000E+00  0.000E+00  1.06322E+03  1.423E+00  1.200E+01  6.000E-02  1.474E+00
   1    7    6     2     4    3.2752E+01  2.6499E-01   3.2487E+01  0.000E+00  0.000E+00  0.000E+00  1.05849E+03  1.417E+00  1.200E+01  6.000E-02  1.472E+00
   1    8    6     2     5    3.2487E+01  2.6458E-01   3.2222E+01  0.000E+00  0.000E+00  0.000E+00  1.05377E+03  1.410E+00  1.200E+01  6.000E-02  1.470E+00
   1    3    5     3     1    2.0000E+00  2.8252E-01   1.7175E+00  0.000E+00  0.000E+00  0.000E+00  1.07555E+03  1.909E+00  9.636E+00  7.227E-02  1.955E+00
   1    3    6     3     2    1.7175E+00  2.4905E-01   1.4684E+00  0.000E+00  0.000E+00  0.000E+00  1.07264E+03  1.727E+00  8.909E+00  6.682E-02  1.864E+00
   1    3    7     3     3    1.4684E+00  1.9718E-01   1.2712E+00  0.000E+00  0.000E+00  0.000E+00  1.06987E+03  1.555E+00  8.218E+00  5.547E-02  1.777E+00
   1    4    8     3     4    1.2712E+00  2.2567E-01   1.0456E+00  0.000E+00  0.000E+00  0.000E+00  1.06682E+03  1.364E+00  7.455E+00  6.709E-02  1.682E+00
   1    5    8     3     5    1.0456E+00  1.5790E-01   8.8768E-01  0.000E+00  0.000E+00  0.000E+00  1.06362E+03  1.164E+00  6.655E+00  4.991E-02  1.582E+00
   1    6    8     3     6    8.8768E-01  5.5980E-02   8.3170E-01  0.000E+00  0.000E+00  0.000E+00  1.06158E+03  1.036E+00  6.145E+00  1.844E-02  1.518E+00
   1    5   10     4     1    1.0000E+01  9.0919E-02   9.9091E+00  0.000E+00  0.000E+00  0.000E+00  1.07836E+03  6.368E-01  1.000E+01  2.500E-02  1.212E+00
   1    5    9     4     2    9.9091E+00  1.8158E-01   9.7275E+00  0.000E+00  0.000E+00  0.000E+00  1.07154E+03  6.315E-01  1.000E+01  5.000E-02  1.211E+00
   1    6    8     4     3    9.7275E+00  1.2689E-01   9.6006E+00  0.000E+00  0.000E+00  0.000E+00  1.06381E+03  6.256E-01  1.000E+01  3.500E-02  1.209E+00
   1    6    8     5     1    1.0432E+01  2.2686E-01   1.0205E+01  0.000E+00  0.000E+00  0.000E+00  1.05868E+03  6.790E-01  1.542E+01  6.166E-02  1.226E+00
   1    7    7     5     2    1.0205E+01  2.7894E-01   9.9265E+00  0.000E+00  0.000E+00  0.000E+00  1.05417E+03  6.732E-01  1.519E+01  7.594E-02  1.224E+00
   1    8    7     5     3    9.9265E+00  1.9221E-01   9.7343E+00  0.000E+00  0.000E+00  0.000E+00  1.04992E+03  6.676E-01  1.497E+01  5.241E-02  1.223E+00
   1    8    6     5     4    9.7343E+00  1.3577E-01   9.5985E+00  0.000E+00  0.000E+00  0.000E+00  1.04691E+03  6.637E-01  1.482E+01  3.706E-02  1.221E+00
   1    9    6     6     1    9.5985E+00  2.2097E-01   9.3776E+00  0.000E+00  0.000E+00  0.000E+00  1.04341E+03  6.828E-01  1.200E+01  6.000E-02  1.228E+00
   1   10    7     6     2    9.3776E+00  2.2039E-01   9.1572E+00  0.000E+00  0.000E+00  0.000E+00  1.03885E+03  6.732E-01  1.200E+01  6.000E-02  1.224E+00
   1   11    7     6     3    9.1572E+00  2.1981E-01   8.9374E+00  0.000E+00  0.000E+00  0.000E+00  1.03430E+03  6.636E-01  1.200E+01  6.000E-02  1.221E+00
   1   12    7     6     4    8.9374E+00  2.1923E-01   8.7181E+00  0.000E+00  0.000E+00  0.000E+00  1.02974E+03  6.539E-01  1.200E+01  6.000E-02  1.218E+00
   1   13    7     6     5    8.7181E+00  1.6637E-03   8.7165E+00  0.000E+00  0.000E+00  0.000E+00  1.02656E+03  6.489E-01  1.200E+01  2.400E-02  2.311E-02
   1   14    9     7     1    1.5000E+02  1.3985E+00   1.4860E+02  0.000E+00  0.000E+00  0.000E+00  1.03987E+03  2.288E+00  5.529E+01  5.593E-01  8.335E-01
   1   13    8     7     2    1.4860E+02  2.0308E+00   1.4657E+02  0.000E+00  0.000E+00  0.000E+00  1.03478E+03  2.278E+00  5.525E+01  6.147E-01  1.101E+00
   1   13    7     7     3    1.4657E+02  1.7861E+00   1.4478E+02  0.000E+00  0.000E+00  0.000E+00  1.02969E+03  2.268E+00  5.521E+01  5.583E-01  1.066E+00
   1   13    6     8     1    1.5350E+02  1.1278E+00   1.5237E+02  0.000E+00  0.000E+00  0.000E+00  1.02471E+03  2.837E+00  4.114E+01  4.193E-01  8.967E-01
   1   13    5     8     2    1.5237E+02  3.7270E-01   1.5200E+02  0.000E+00  0.000E+00  0.000E+00  1.01846E+03  2.832E+00  4.107E+01  4.185E-01  2.969E-01
   1   13    4     8     3    1.5200E+02 -1.7584E+00   1.5376E+02  0.000E+00  0.000E+00  0.000E+00  1.01221E+03  2.837E+00  4.114E+01  4.192E+00 -1.398E-01
   1   13    3     8     4    1.5376E+02 -3.3050E+00   1.5706E+02  0.000E+00  0.000E+00  0.000E+00  1.00598E+03  2.855E+00  4.139E+01  4.218E+00 -2.612E-01
   1   13    2     8     5    1.5706E+02 -2.5082E+00   1.5957E+02  0.000E+00  0.000E+00  0.000E+00  9.99749E+02  2.874E+00  4.168E+01  4.247E+00 -1.968E-01
   1   13    1     8     6    1.5957E+02 -1.9858E+00   1.6156E+02  0.000E+00  0.000E+00  0.000E+00  9.94765E+02  2.890E+00  4.190E+01  2.562E+00 -2.584E-01
   1    8    6     9     1    3.2222E+01  0.0000E+00   3.2222E+01  0.000E+00  0.000E+00  0.000E+00  1.08332E+03  4.573E+00  4.000E+00  0.000E+00  2.524E+00
   1    8    5     9     2    3.2222E+01  0.0000E+00   3.2222E+01  0.000E+00  0.000E+00  0.000E+00  1.08282E+03  4.573E+00  4.000E+00  0.000E+00  2.524E+00





UNSATURATED ZONE PACKAGE VOLUMETRIC BUDGET FOR  TIME STEP    30 STRESS PERIOD   30
  ------------------------------------------------------------------------------



     CUMULATIVE VOLUMES      L**3       RATES FOR THIS TIME STEP      L**3/T
     ------------------                 ------------------------

           IN:                                      IN:
           ---                                      ---
        INFILTRATION =  4598065151.5909          INFILTRATION =         107.5469

          OUT:                                     OUT:
          ----                                     ----
              UZF ET =   894123902.9203                UZF ET =           8.3175
        UZF RECHARGE =  3021374750.3861          UZF RECHARGE =       0.0000E+00

            IN - OUT =   682566498.2846              IN - OUT =          99.2294

          STORAGE:                                 STORAGE:
          --------                                 --------
      STORAGE CHANGE =   682610566.4849        STORAGE CHANGE =          99.2294

 PERCENT DISCREPANCY IS DIFFERENCE BETWEEN IN-OUT MINUS CHANGE IN STORAGE
 DIVIDED BY THE AVERAGE OF IN AND OUT TIMES 100

 PERCENT DISCREPANCY =          -0.00     PERCENT DISCREPANCY =          -0.00






1
  VOLUMETRIC BUDGET FOR AGRICULTURAL FIELDS AT  END OF TIME STEP   30, STRESS PERIOD  30
  ------------------------------------------------------------------------------

     CUMULATIVE VOLUMES      L**3       RATES FOR THIS TIME STEP      L**3/T
     ------------------                 ------------------------

           IN:                                      IN:
           ---                                      ---
               AG WELLS  =  3942616832.0000                 AG WELLS  =          74.4765
      DIVERSION SEGMENTS =   590734464.0000        DIVERSION SEGMENTS =          32.2223
           GW IRRIGATION =           0.0000             GW IRRIGATION =           0.0000
           SW IRRIGATION =           0.0000             SW IRRIGATION =           0.0000
        SYSTEM LOSSES GW =           0.0000          SYSTEM LOSSES GW =           0.0000
        SYSTEM LOSSES SW =           0.0000          SYSTEM LOSSES SW =           0.0000

                TOTAL IN =  4533351424.0000                  TOTAL IN =         106.6988

          OUT:                                     OUT:
          ----                                     ----
               AG WELLS  =           0.0000                 AG WELLS  =           0.0000
      DIVERSION SEGMENTS =           0.0000        DIVERSION SEGMENTS =           0.0000
           GW IRRIGATION =  3942616832.0000             GW IRRIGATION =          74.4765
           SW IRRIGATION =   590745472.0000             SW IRRIGATION =          32.2229
        SYSTEM LOSSES GW =           0.0000          SYSTEM LOSSES GW =           0.0000
        SYSTEM LOSSES SW =           0.0000          SYSTEM LOSSES SW =           0.0000

               TOTAL OUT =  4533362176.0000                 TOTAL OUT =         106.6994

                IN - OUT =      -10752.0000                  IN - OUT =      -6.4087E-04

     PERCENT DISCREPANCY =          -0.00         PERCENT DISCREPANCY =          -0.00



1
  VOLUMETRIC BUDGET FOR ENTIRE MODEL AT END OF TIME STEP   30, STRESS PERIOD  30
  ------------------------------------------------------------------------------

     CUMULATIVE VOLUMES      L**3       RATES FOR THIS TIME STEP      L**3/T
     ------------------                 ------------------------

           IN:                                      IN:
           ---                                      ---
             STORAGE     =  3910015232.0000               STORAGE     =          72.0605
       CONSTANT HEAD     =           0.0000         CONSTANT HEAD     =           0.0000
     HEAD DEP BOUNDS     =    22033852.0000       HEAD DEP BOUNDS     =           0.2900
      STREAM LEAKAGE     =   914906880.0000        STREAM LEAKAGE     =          12.9010
        UZF RECHARGE     =  3021374464.0000          UZF RECHARGE     =           0.0000
               GW ET     =           0.0000                 GW ET     =           0.0000
     SURFACE LEAKAGE     =           0.0000       SURFACE LEAKAGE     =           0.0000
           AG WELLS      =           0.0000             AG WELLS      =           0.0000

                TOTAL IN =  7868330496.0000                  TOTAL IN =          85.2515

          OUT:                                     OUT:
          ----                                     ----
             STORAGE     =  3155988992.0000               STORAGE     =           0.9311
       CONSTANT HEAD     =           0.0000         CONSTANT HEAD     =           0.0000
     HEAD DEP BOUNDS     =    21945600.0000       HEAD DEP BOUNDS     =           0.2865
      STREAM LEAKAGE     =   747715392.0000        STREAM LEAKAGE     =           9.5572
        UZF RECHARGE     =           0.0000          UZF RECHARGE     =           0.0000
               GW ET     =           0.0000                 GW ET     =           0.0000
     SURFACE LEAKAGE     =           0.0000       SURFACE LEAKAGE     =           0.0000
           AG WELLS      =  3942616832.0000             AG WELLS      =          74.4765

               TOTAL OUT =  7868266496.0000                 TOTAL OUT =          85.2514

                IN - OUT =       64000.0000                  IN - OUT =       1.3733E-04

     PERCENT DISCREPANCY =           0.00         PERCENT DISCREPANCY =           0.00






         TIME SUMMARY AT END OF TIME STEP   30 IN STRESS PERIOD   30
                    SECONDS     MINUTES      HOURS       DAYS        YEARS
                    -----------------------------------------------------------
   TIME STEP LENGTH  87667.      1461.1      24.352      1.0147     2.77799E-03
 STRESS PERIOD TIME 2.63000E+06  43833.      730.56      30.440     8.33397E-02
         TOTAL TIME 7.63565E+07 1.27261E+06  21210.      883.76      2.4196    
1
1
                            STRESS PERIOD NO.   31, LENGTH =   2630000.    
                            -----------------------------------------------

                              NUMBER OF TIME STEPS =    30

                               MULTIPLIER FOR DELT =     1.000

                            INITIAL TIME STEP SIZE =   87666.66    

 REUSING NON-PARAMETER GHB CELLS FROM LAST STRESS PERIOD

      2 GHB CELLS

 REUSING STREAM SEGMENT DATA FROM LAST STRESS PERIOD



            AREAL INFILTRATION RATE
 READING ON UNIT   19 WITH FORMAT: (FREE)              

            1           2           3           4           5           6           7           8           9          10
 ........................................................................................................................
   1   1.0000E-10  2.0000E-10   0.000       0.000       0.000       0.000       0.000       0.000       0.000       0.000    
   2   2.0000E-10  1.0000E-10  2.0000E-10   0.000       0.000      8.0000E-10  8.0000E-10  5.0000E-10   0.000       0.000    
   3    0.000      5.0000E-10  1.0000E-10  1.0000E-10  8.0000E-10  8.0000E-10  5.0000E-10  5.0000E-10   0.000       0.000    
   4   8.0000E-10  5.0000E-10  1.0000E-10  1.0000E-10  1.0000E-10  1.0000E-10  1.0000E-10  1.0000E-10  2.0000E-10   0.000    
   5   8.0000E-10  5.0000E-10  1.0000E-10  1.0000E-10  1.0000E-10  1.0000E-10  1.0000E-10  1.0000E-10  1.0000E-10  1.0000E-10
   6   8.0000E-10  5.0000E-10  5.0000E-10  2.0000E-10  2.0000E-10  1.0000E-10  1.0000E-10  1.0000E-10  1.0000E-10  5.0000E-10
   7   8.0000E-10  5.0000E-10  5.0000E-10  2.0000E-10  2.0000E-10  1.0000E-10  1.0000E-10  2.0000E-10  2.0000E-10   0.000    
   8    0.000      5.0000E-10  5.0000E-10  2.0000E-10  2.0000E-10  1.0000E-10  1.0000E-10  2.0000E-10  5.0000E-10   0.000    
   9    0.000      5.0000E-10  5.0000E-10  2.0000E-10  2.0000E-10  1.0000E-10  1.0000E-10  2.0000E-10  5.0000E-10   0.000    
  10    0.000      5.0000E-10  5.0000E-10  2.0000E-10  2.0000E-10  1.0000E-10  1.0000E-10  2.0000E-10  5.0000E-10  8.0000E-10
  11    0.000      1.0000E-10  1.0000E-10  1.0000E-10  1.0000E-10  1.0000E-10  1.0000E-10  2.0000E-10  5.0000E-10   0.000    
  12   1.0000E-10  1.0000E-10  1.0000E-10  1.0000E-10  1.0000E-10  1.0000E-10  1.0000E-10  1.0000E-10  2.0000E-10   0.000    
  13   1.0000E-10  1.0000E-10  2.0000E-10  2.0000E-10  2.0000E-10  2.0000E-10  2.0000E-10  1.0000E-10  1.0000E-10   0.000    
  14    0.000      2.0000E-10  5.0000E-10  5.0000E-10  5.0000E-10  5.0000E-10  5.0000E-10  2.0000E-10  1.0000E-10   0.000    
  15    0.000       0.000      8.0000E-10  8.0000E-10  8.0000E-10  8.0000E-10   0.000       0.000       0.000       0.000    

                  ET RATE =  1.500000E-07

 USING ET EXTINCTION DEPTH FROM PREVIOUS STRESS PERIOD. CURRENT PERIOD IS:      31

 USING EXTINCTION WATER CONTENT FROM PREVIOUS STRESS PERIOD. CURRENT PERIOD IS:      31

 USING AIR ENTRY PRESSURE FROM PREVIOUS STRESS PERIOD. CURRENT PERIOD IS:      31

 USING ROOT PRESSURE HEAD FROM PREVIOUS STRESS PERIOD. CURRENT PERIOD IS:      31

 USING ROOT ACTIVITY FROM PREVIOUS STRESS PERIOD. CURRENT PERIOD IS:      31

 PROCESSING AG STRESS PERIOD DATA

 READING AG STRESS PERIOD DATA

 READING IRRIGATION SEGMENT

 READING IRRIGATION WELL

 READING SUPPLEMENTAL WELL

 END PROCESSING AG STRESS PERIOD DATA OPTIONS
 
 SOLVING FOR HEAD 
                                                   Max.-Head-Change                         Max.-Flux-Residual
  Residual-Control   Outer-Iter.   Inner-Iter.     Column Row Layer    Maximum-Head-Change  Column Row Layer    Maximum-Flux-Residual          L2-NORM 
          0                 1           2             5    8     1       0.1163666727E+00       5    8    1         0.6345614059E+01      0.1501089518E+02
          0                 2           2             5    8     1      -0.1131857329E-01       5    8    1        -0.6345478244E+00      0.1500811299E+01
          0                 3           2             5    8     1       0.7707547918E-03       5    8    1         0.4441849459E-01      0.1050564604E+00
          0                 4           1             5    8     1      -0.3066904570E-04       5    8    1        -0.1816718363E-02      0.4296766539E-02

    ------------------------------------------------
       NWT REQUIRED            4 OUTER ITERATIONS 
       AND A TOTAL OF          7 INNER ITERATIONS.
    ------------------------------------------------

 NO OUTPUT CONTROL FOR STRESS PERIOD   31   TIME STEP    1
 
 SOLVING FOR HEAD 
                                                   Max.-Head-Change                         Max.-Flux-Residual
  Residual-Control   Outer-Iter.   Inner-Iter.     Column Row Layer    Maximum-Head-Change  Column Row Layer    Maximum-Flux-Residual          L2-NORM 
          0                 1           2             5    6     1       0.1110819270E+00       5    8    1         0.6047030888E+01      0.1449621552E+02
          0                 2           2             5    6     1      -0.1080505088E-01       5    8    1        -0.6046904761E+00      0.1449363981E+01
          0                 3           2             5    6     1       0.7357857809E-03       5    8    1         0.4232847094E-01      0.1014369172E+00
          0                 4           1             5    6     1      -0.2927754375E-04       5    8    1        -0.1731236322E-02      0.4147612737E-02

    ------------------------------------------------
       NWT REQUIRED            4 OUTER ITERATIONS 
       AND A TOTAL OF          7 INNER ITERATIONS.
    ------------------------------------------------

 NO OUTPUT CONTROL FOR STRESS PERIOD   31   TIME STEP    2
 
 SOLVING FOR HEAD 
                                                   Max.-Head-Change                         Max.-Flux-Residual
  Residual-Control   Outer-Iter.   Inner-Iter.     Column Row Layer    Maximum-Head-Change  Column Row Layer    Maximum-Flux-Residual          L2-NORM 
          0                 1           2             5    6     1       0.1063249837E+00       5    6    1         0.5772991333E+01      0.1397436185E+02
          0                 2           2             5    6     1      -0.7847521132E-01       5    6    1        -0.4322287118E+01      0.1045725465E+02
          0                 3           2             4    7     1       0.7310508170E-01       5    6    1         0.4047559274E+01      0.9900672035E+01
          0                 4           2             4    7     1      -0.2908949547E-02       5    6    1        -0.1655107947E+00      0.4048864640E+00
          0                 5           1             4    7     1       0.3586856014E-04       5    6    1         0.2095079664E-02      0.5133265704E-02

    ------------------------------------------------
       NWT REQUIRED            5 OUTER ITERATIONS 
       AND A TOTAL OF          9 INNER ITERATIONS.
    ------------------------------------------------

 NO OUTPUT CONTROL FOR STRESS PERIOD   31   TIME STEP    3
 
 SOLVING FOR HEAD 
                                                   Max.-Head-Change                         Max.-Flux-Residual
  Residual-Control   Outer-Iter.   Inner-Iter.     Column Row Layer    Maximum-Head-Change  Column Row Layer    Maximum-Flux-Residual          L2-NORM 
          0                 1           2             5    6     1       0.1018483551E+00       5    6    1         0.5525779333E+01      0.1348805351E+02
          0                 2           2             5    6     1      -0.9906905752E-02       5    6    1        -0.5525667720E+00      0.1348576359E+01
          0                 3           2             4    7     1      -0.6930389642E-01       4    7    1        -0.3719393932E+01      0.9137084018E+01
          0                 4           2             4    7     1       0.7260740932E-01       4    7    1         0.4005399145E+01      0.9810072106E+01
          0                 5           2             4    7     1      -0.2889832648E-02       5    8    1        -0.1638783275E+00      0.4014260265E+00
          0                 6           1             4    7     1       0.3565929434E-04       5    8    1         0.2079019081E-02      0.5092784026E-02

    ------------------------------------------------
       NWT REQUIRED            6 OUTER ITERATIONS 
       AND A TOTAL OF         11 INNER ITERATIONS.
    ------------------------------------------------

 NO OUTPUT CONTROL FOR STRESS PERIOD   31   TIME STEP    4
 
 SOLVING FOR HEAD 
                                                   Max.-Head-Change                         Max.-Flux-Residual
  Residual-Control   Outer-Iter.   Inner-Iter.     Column Row Layer    Maximum-Head-Change  Column Row Layer    Maximum-Flux-Residual          L2-NORM 
          0                 1           2             5    6     1       0.9763273255E-01       5    6    1         0.5293125574E+01      0.1302969111E+02
          0                 2           2             5    6     1      -0.9496853392E-02       5    6    1        -0.5293022710E+00      0.1302738047E+01
          0                 3           2             4    7     1      -0.6930267546E-01       4    7    1        -0.3719288017E+01      0.9139355607E+01
          0                 4           2             4    7     1       0.7260741795E-01       4    7    1         0.4005391200E+01      0.9810230755E+01
          0                 5           2             4    7     1      -0.2889832984E-02       5    8    1        -0.1638831329E+00      0.4014324529E+00
          0                 6           1             4    7     1       0.3565929882E-04       5    8    1         0.2079079375E-02      0.5092865423E-02

    ------------------------------------------------
       NWT REQUIRED            6 OUTER ITERATIONS 
       AND A TOTAL OF         11 INNER ITERATIONS.
    ------------------------------------------------

 NO OUTPUT CONTROL FOR STRESS PERIOD   31   TIME STEP    5
 
 SOLVING FOR HEAD 
                                                   Max.-Head-Change                         Max.-Flux-Residual
  Residual-Control   Outer-Iter.   Inner-Iter.     Column Row Layer    Maximum-Head-Change  Column Row Layer    Maximum-Flux-Residual          L2-NORM 
          0                 1           2             5    6     1       0.9366046211E-01       5    6    1         0.5074037168E+01      0.1259722879E+02
          0                 2           2             5    6     1      -0.9110471466E-02       5    6    1        -0.5073942311E+00      0.1259489323E+01
          0                 3           2             4    7     1      -0.6930205669E-01       4    7    1        -0.3719217507E+01      0.9141534704E+01
          0                 4           2             4    7     1       0.7260745769E-01       4    7    1         0.4005385972E+01      0.9810383430E+01
          0                 5           2             4    7     1      -0.2889834559E-02       5    8    1        -0.1638876478E+00      0.4014386293E+00
          0                 6           1             4    7     1       0.3565931797E-04       5    8    1         0.2079136049E-02      0.5092940304E-02

    ------------------------------------------------
       NWT REQUIRED            6 OUTER ITERATIONS 
       AND A TOTAL OF         11 INNER ITERATIONS.
    ------------------------------------------------

 NO OUTPUT CONTROL FOR STRESS PERIOD   31   TIME STEP    6
 
 SOLVING FOR HEAD 
                                                   Max.-Head-Change                         Max.-Flux-Residual
  Residual-Control   Outer-Iter.   Inner-Iter.     Column Row Layer    Maximum-Head-Change  Column Row Layer    Maximum-Flux-Residual          L2-NORM 
          0                 1           2             5    8     1       0.1862929299E+00       5    8    1         0.1019659867E+02      0.1514417304E+02
          0                 2           2             5    8     1       0.8076759261E-01       5    8    1         0.4465138956E+01      0.4603323082E+01
          0                 3           2             4    7     1      -0.6928719688E-01       4    7    1        -0.3719180003E+01      0.8549342578E+01
          0                 4           2             4    7     1       0.7259944874E-01       4    7    1         0.4005383157E+01      0.9405020939E+01
          0                 5           2             5    8     1       0.2381982303E-01       5    8    1         0.1393969850E+01      0.1441334042E+01
          0                 6           2             5    8     1       0.1105188854E-01       5    8    1         0.6443811211E+00      0.6444026473E+00
          0                 7           1             5    8     1       0.5127785922E-02       5    8    1         0.2989938448E+00      0.2989951613E+00
          0                 8           1             5    8     1       0.2379131713E-02       5    8    1         0.1387228260E+00      0.1387233980E+00
          0                 9           1             5    8     1       0.1103830223E-02       5    8    1         0.6436173254E-01      0.6436199735E-01
          0                10           1             5    8     1       0.5121312332E-03       5    8    1         0.2986088018E-01      0.2986100303E-01
                                                   Max.-Head-Change                         Max.-Flux-Residual
  Residual-Control   Outer-Iter.   Inner-Iter.     Column Row Layer    Maximum-Head-Change  Column Row Layer    Maximum-Flux-Residual          L2-NORM 
          0                11           1             5    8     1       0.2376049191E-03       5    8    1         0.1385391852E-01      0.1385397551E-01
          0                12           1             5    8     1       0.1102363365E-03       5    8    1         0.6427436829E-02      0.6427463276E-02
          0                13           1             5    8     1       0.5114336501E-04       5    8    1         0.2981935038E-02      0.2981947322E-02

    ------------------------------------------------
       NWT REQUIRED           13 OUTER ITERATIONS 
       AND A TOTAL OF         19 INNER ITERATIONS.
    ------------------------------------------------

 NO OUTPUT CONTROL FOR STRESS PERIOD   31   TIME STEP    7
 
 SOLVING FOR HEAD 
                                                   Max.-Head-Change                         Max.-Flux-Residual
  Residual-Control   Outer-Iter.   Inner-Iter.     Column Row Layer    Maximum-Head-Change  Column Row Layer    Maximum-Flux-Residual          L2-NORM 
          0                 1           2             5    8     1       0.3691431543E+00       5    8    1         0.2027383593E+02      0.2305673619E+02
          0                 2           2             5    8     1       0.1437797815E+00       5    8    1         0.7944032631E+01      0.8019511690E+01
          0                 3           2             4    7     1      -0.6927700493E-01       4    7    1        -0.3719131735E+01      0.8379642326E+01
          0                 4           2             4    7     1       0.7260332551E-01       4    7    1         0.4005379396E+01      0.9585841524E+01
          0                 5           2             5    8     1       0.2768058224E-01       5    8    1         0.1619229971E+01      0.1660179501E+01
          0                 6           2             5    8     1       0.1284211702E-01       5    8    1         0.7488281589E+00      0.7488475247E+00
          0                 7           1             5    8     1       0.5957903431E-02       5    8    1         0.3474236826E+00      0.3474251983E+00
          0                 8           1             5    8     1       0.2764047563E-02       5    8    1         0.1611789863E+00      0.1611796534E+00
          0                 9           1             5    8     1       0.1282309208E-02       5    8    1         0.7477418543E-01      0.7477449436E-01
          0                10           1             5    8     1       0.5948879835E-03       5    8    1         0.3468886052E-01      0.3468900382E-01
                                                   Max.-Head-Change                         Max.-Flux-Residual
  Residual-Control   Outer-Iter.   Inner-Iter.     Column Row Layer    Maximum-Head-Change  Column Row Layer    Maximum-Flux-Residual          L2-NORM 
          0                11           1             5    8     1       0.2759769528E-03       5    8    1         0.1609249999E-01      0.1609256646E-01
          0                12           1             5    8     1       0.1280281926E-03       5    8    1         0.7465384177E-02      0.7465415017E-02
          0                13           1             5    8     1       0.5939277165E-04       5    8    1         0.3463187271E-02      0.3463201585E-02

    ------------------------------------------------
       NWT REQUIRED           13 OUTER ITERATIONS 
       AND A TOTAL OF         19 INNER ITERATIONS.
    ------------------------------------------------

 NO OUTPUT CONTROL FOR STRESS PERIOD   31   TIME STEP    8
 
 SOLVING FOR HEAD 
                                                   Max.-Head-Change                         Max.-Flux-Residual
  Residual-Control   Outer-Iter.   Inner-Iter.     Column Row Layer    Maximum-Head-Change  Column Row Layer    Maximum-Flux-Residual          L2-NORM 
          0                 1           2             5    8     1       0.3321110369E+00       5    8    1         0.1820470696E+02      0.2125645692E+02
          0                 2           2             5    8     1       0.1439601863E+00       5    8    1         0.7957253473E+01      0.8032514199E+01
          0                 3           2             4    7     1      -0.6927154807E-01       4    7    1        -0.3719026663E+01      0.8357745403E+01
          0                 4           2             4    7     1       0.7260421229E-01       4    7    1         0.4005371474E+01      0.9633788889E+01
          0                 5           2             5    8     1       0.2921271159E-01       5    8    1         0.1708709373E+01      0.1747562674E+01
          0                 6           2             5    8     1       0.1355186097E-01       5    8    1         0.7902741737E+00      0.7902928667E+00
          0                 7           2             5    8     1       0.6286681275E-02       5    8    1         0.3666223170E+00      0.3666239328E+00
          0                 8           1             5    8     1       0.2916346786E-02       5    8    1         0.1700722784E+00      0.1700729850E+00
          0                 9           1             5    8     1       0.1352857595E-02       5    8    1         0.7889372792E-01      0.7889405516E-01
          0                10           1             5    8     1       0.6275671326E-03       5    8    1         0.3659708511E-01      0.3659723690E-01
                                                   Max.-Head-Change                         Max.-Flux-Residual
  Residual-Control   Outer-Iter.   Inner-Iter.     Column Row Layer    Maximum-Head-Change  Column Row Layer    Maximum-Flux-Residual          L2-NORM 
          0                11           1             5    8     1       0.2911142590E-03       5    8    1         0.1697640200E-01      0.1697647244E-01
          0                12           1             5    8     1       0.1350398498E-03       5    8    1         0.7874807839E-02      0.7874840495E-02
          0                13           1             5    8     1       0.6264055433E-04       5    8    1         0.3652829898E-02      0.3652845087E-02

    ------------------------------------------------
       NWT REQUIRED           13 OUTER ITERATIONS 
       AND A TOTAL OF         20 INNER ITERATIONS.
    ------------------------------------------------

 NO OUTPUT CONTROL FOR STRESS PERIOD   31   TIME STEP    9
 
 SOLVING FOR HEAD 
                                                   Max.-Head-Change                         Max.-Flux-Residual
  Residual-Control   Outer-Iter.   Inner-Iter.     Column Row Layer    Maximum-Head-Change  Column Row Layer    Maximum-Flux-Residual          L2-NORM 
          0                 1           2             5    8     1       0.2971123449E+00       5    8    1         0.1625007171E+02      0.1963882058E+02
          0                 2           2             5    8     1       0.1287791021E+00       5    8    1         0.7122356361E+01      0.7207174419E+01
          0                 3           2             4    7     1      -0.6927086547E-01       4    7    1        -0.3718874794E+01      0.8377895297E+01
          0                 4           2             4    7     1       0.7260296891E-01       4    7    1         0.4005360566E+01      0.9574819660E+01
          0                 5           2             5    8     1       0.2791277271E-01       5    8    1         0.1633031257E+01      0.1673640986E+01
          0                 6           2             5    8     1       0.1294790950E-01       5    8    1         0.7551117264E+00      0.7551306746E+00
          0                 7           1             5    8     1       0.6006089027E-02       5    8    1         0.3502865625E+00      0.3502879474E+00
          0                 8           1             5    8     1       0.2785987028E-02       5    8    1         0.1624829302E+00      0.1624835366E+00
          0                 9           1             5    8     1       0.1292294839E-02       5    8    1         0.7536787755E-01      0.7536815828E-01
          0                10           1             5    8     1       0.5994311609E-03       5    8    1         0.3495907228E-01      0.3495920247E-01
                                                   Max.-Head-Change                         Max.-Flux-Residual
  Residual-Control   Outer-Iter.   Inner-Iter.     Column Row Layer    Maximum-Head-Change  Column Row Layer    Maximum-Flux-Residual          L2-NORM 
          0                11           1             5    8     1       0.2780431515E-03       5    8    1         0.1621543677E-01      0.1621549718E-01
          0                12           1             5    8     1       0.1289674964E-03       5    8    1         0.7521293961E-02      0.7521321998E-02
          0                13           1             5    8     1       0.5981960111E-04       5    8    1         0.3488603747E-02      0.3488616759E-02

    ------------------------------------------------
       NWT REQUIRED           13 OUTER ITERATIONS 
       AND A TOTAL OF         19 INNER ITERATIONS.
    ------------------------------------------------

 NO OUTPUT CONTROL FOR STRESS PERIOD   31   TIME STEP   10
 
 SOLVING FOR HEAD 
                                                   Max.-Head-Change                         Max.-Flux-Residual
  Residual-Control   Outer-Iter.   Inner-Iter.     Column Row Layer    Maximum-Head-Change  Column Row Layer    Maximum-Flux-Residual          L2-NORM 
          0                 1           2             5    8     1       0.2664153394E+00       5    8    1         0.1453680460E+02      0.1828546333E+02
          0                 2           2             5    8     1       0.1154657919E+00       5    8    1         0.6389956330E+01      0.6485467831E+01
          0                 3           2             4    7     1      -0.6926949698E-01       4    7    1        -0.3718690667E+01      0.8408655578E+01
          0                 4           2             4    7     1       0.7260184657E-01       4    7    1         0.4005347638E+01      0.9525124999E+01
          0                 5           2             5    8     1       0.2677321360E-01       5    8    1         0.1566678926E+01      0.1608963323E+01
          0                 6           2             5    8     1       0.1241852849E-01       5    8    1         0.7242858147E+00      0.7243051010E+00
          0                 7           1             5    8     1       0.5760168699E-02       5    8    1         0.3359670449E+00      0.3359682697E+00
          0                 8           1             5    8     1       0.2671747921E-02       5    8    1         0.1558310255E+00      0.1558315568E+00
          0                 9           1             5    8     1       0.1239227241E-02       5    8    1         0.7227788190E-01      0.7227812777E-01
          0                10           1             5    8     1       0.5747799464E-03       5    8    1         0.3352370251E-01      0.3352381680E-01
                                                   Max.-Head-Change                         Max.-Flux-Residual
  Residual-Control   Outer-Iter.   Inner-Iter.     Column Row Layer    Maximum-Head-Change  Column Row Layer    Maximum-Flux-Residual          L2-NORM 
          0                11           1             5    8     1       0.2665922034E-03       5    8    1         0.1554868547E-01      0.1554873882E-01
          0                12           1             5    8     1       0.1236483880E-03       5    8    1         0.7211581872E-02      0.7211606426E-02
          0                13           1             5    8     1       0.5734884207E-04       5    8    1         0.3344741571E-02      0.3344755547E-02

    ------------------------------------------------
       NWT REQUIRED           13 OUTER ITERATIONS 
       AND A TOTAL OF         19 INNER ITERATIONS.
    ------------------------------------------------

 NO OUTPUT CONTROL FOR STRESS PERIOD   31   TIME STEP   11
 
 SOLVING FOR HEAD 
                                                   Max.-Head-Change                         Max.-Flux-Residual
  Residual-Control   Outer-Iter.   Inner-Iter.     Column Row Layer    Maximum-Head-Change  Column Row Layer    Maximum-Flux-Residual          L2-NORM 
          0                 1           2             5    8     1       0.2394744740E+00       5    8    1         0.1303426531E+02      0.1715252488E+02
          0                 2           2             5    8     1       0.1039516296E+00       5    8    1         0.5750885894E+01      0.5857964768E+01
          0                 3           2             4    7     1      -0.6926762928E-01       4    7    1        -0.3718486022E+01      0.8444974810E+01
          0                 4           2             4    7     1       0.7260086025E-01       4    7    1         0.4005333034E+01      0.9483549748E+01
          0                 5           2             5    8     1       0.2583543602E-01       5    8    1         0.1510634853E+01      0.1554444321E+01
          0                 6           2             5    8     1       0.1199518218E-01       5    8    1         0.6989680967E+00      0.6989879096E+00
          0                 7           1             5    8     1       0.5569207110E-02       5    8    1         0.3245391900E+00      0.3245403808E+00
          0                 8           1             5    8     1       0.2585682071E-02       5    8    1         0.1506766864E+00      0.1506772017E+00
          0                 9           1             5    8     1       0.1200472147E-02       5    8    1         0.6995505623E-01      0.6995529493E-01
          0                10           1             5    8     1       0.5573451787E-03       5    8    1         0.3247784513E-01      0.3247795594E-01
                                                   Max.-Head-Change                         Max.-Flux-Residual
  Residual-Control   Outer-Iter.   Inner-Iter.     Column Row Layer    Maximum-Head-Change  Column Row Layer    Maximum-Flux-Residual          L2-NORM 
          0                11           1             5    8     1       0.2587566979E-03       5    8    1         0.1507823251E-01      0.1507828395E-01
          0                12           1             5    8     1       0.1201307362E-03       5    8    1         0.7000173849E-02      0.7000197774E-02
          0                13           1             5    8     1       0.5577144082E-04       5    8    1         0.3249843076E-02      0.3249854338E-02

    ------------------------------------------------
       NWT REQUIRED           13 OUTER ITERATIONS 
       AND A TOTAL OF         19 INNER ITERATIONS.
    ------------------------------------------------

 NO OUTPUT CONTROL FOR STRESS PERIOD   31   TIME STEP   12
 
 SOLVING FOR HEAD 
                                                   Max.-Head-Change                         Max.-Flux-Residual
  Residual-Control   Outer-Iter.   Inner-Iter.     Column Row Layer    Maximum-Head-Change  Column Row Layer    Maximum-Flux-Residual          L2-NORM 
          0                 1           2             4    8     1       0.1786031332E+00       4    8    1         0.9564301780E+01      0.1502643218E+02
          0                 2           2             4    8     1       0.7995059127E-01       4    8    1         0.4301978964E+01      0.5136444676E+01
          0                 3           2             4    7     1      -0.6883277578E-01       4    6    1        -0.3718622351E+01      0.8160410128E+01
          0                 4           2             4    7     1       0.7235198371E-01       4    6    1         0.4005368677E+01      0.8899496864E+01
          0                 5           2             4    8     1       0.2467957659E-01       4    8    1         0.1400120665E+01      0.1841111474E+01
          0                 6           2             4    8     1       0.1180249872E-01       4    8    1         0.6693832714E+00      0.8314278498E+00
          0                 7           2             4    8     1       0.5637560623E-02       4    8    1         0.3200880178E+00      0.3841859089E+00
          0                 8           2             4    8     1       0.2690017190E-02       4    8    1         0.1528756963E+00      0.1782988832E+00
          0                 9           2             4    8     1       0.1282395254E-02       4    8    1         0.7293880095E-01      0.8305687200E-01
          0                10           2             4    8     1       0.6108583142E-03       4    8    1         0.3476851166E-01      0.3881178055E-01
                                                   Max.-Head-Change                         Max.-Flux-Residual
  Residual-Control   Outer-Iter.   Inner-Iter.     Column Row Layer    Maximum-Head-Change  Column Row Layer    Maximum-Flux-Residual          L2-NORM 
          0                11           2             4    8     1       0.2907722853E-03       4    8    1         0.1656033293E-01      0.1818360848E-01
          0                12           2             4    8     1       0.1383235438E-03       4    8    1         0.7882232090E-02      0.8537328648E-02
          0                13           1             4    8     1       0.6576603936E-04       4    8    1         0.3749408772E-02      0.4015279937E-02

    ------------------------------------------------
       NWT REQUIRED           13 OUTER ITERATIONS 
       AND A TOTAL OF         25 INNER ITERATIONS.
    ------------------------------------------------

 NO OUTPUT CONTROL FOR STRESS PERIOD   31   TIME STEP   13
 
 SOLVING FOR HEAD 
                                                   Max.-Head-Change                         Max.-Flux-Residual
  Residual-Control   Outer-Iter.   Inner-Iter.     Column Row Layer    Maximum-Head-Change  Column Row Layer    Maximum-Flux-Residual          L2-NORM 
          0                 1           2             4    8     1       0.4006822604E+00       4    8    1         0.2164388297E+02      0.2516173476E+02
          0                 2           2             4    8     1       0.1779643339E+00       4    8    1         0.9632215853E+01      0.1052955692E+02
          0                 3           2             4    6     1      -0.6831974665E-01       4    6    1        -0.3719239376E+01      0.7508762346E+01
          0                 4           2             4    8     1       0.7412125331E-01       4    6    1         0.4005411132E+01      0.8809247537E+01
          0                 5           2             4    8     1       0.3314836604E-01       4    8    1         0.1783575806E+01      0.2457407924E+01
          0                 6           2             4    8     1       0.1482232031E-01       4    8    1         0.7966864358E+00      0.1074778131E+01
          0                 7           2             4    8     1       0.6626867186E-02       4    8    1         0.3562398205E+00      0.4743455915E+00
          0                 8           2             4    8     1       0.2962369792E-02       4    8    1         0.1592686082E+00      0.2094775704E+00
          0                 9           2             4    8     1       0.1324068088E-02       4    8    1         0.7119616025E-01      0.9256258387E-01
          0                10           2             4    8     1       0.5917286536E-03       4    8    1         0.3182167303E-01      0.4092343529E-01
                                                   Max.-Head-Change                         Max.-Flux-Residual
  Residual-Control   Outer-Iter.   Inner-Iter.     Column Row Layer    Maximum-Head-Change  Column Row Layer    Maximum-Flux-Residual          L2-NORM 
          0                11           2             4    8     1       0.2644096888E-03       4    8    1         0.1422101948E-01      0.1810219617E-01
          0                12           2             4    8     1       0.1181342729E-03       4    8    1         0.6354494558E-02      0.8011202432E-02
          0                13           1             4    8     1       0.5277394750E-04       4    8    1         0.2839063882E-02      0.3546964911E-02

    ------------------------------------------------
       NWT REQUIRED           13 OUTER ITERATIONS 
       AND A TOTAL OF         25 INNER ITERATIONS.
    ------------------------------------------------

 NO OUTPUT CONTROL FOR STRESS PERIOD   31   TIME STEP   14
 
 SOLVING FOR HEAD 
                                                   Max.-Head-Change                         Max.-Flux-Residual
  Residual-Control   Outer-Iter.   Inner-Iter.     Column Row Layer    Maximum-Head-Change  Column Row Layer    Maximum-Flux-Residual          L2-NORM 
          0                 1           2             5    7     1       0.3915792407E+00       5    7    1         0.2142368485E+02      0.2829899464E+02
          0                 2           2             5    7     1       0.1526474070E+00       5    7    1         0.8407242949E+01      0.1082295360E+02
          0                 3           2             4    6     1      -0.6831740906E-01       4    6    1        -0.3719750082E+01      0.7207677848E+01
          0                 4           2             4    7     1       0.7227601058E-01       4    6    1         0.4005446487E+01      0.8787152990E+01
          0                 5           2             5    7     1       0.2661041094E-01       5    7    1         0.1540271565E+01      0.2400164848E+01
          0                 6           2             5    7     1       0.1134310330E-01       5    7    1         0.6540347490E+00      0.1028080326E+01
          0                 7           2             5    7     1       0.4836937645E-02       5    7    1         0.2788104029E+00      0.4444980468E+00
          0                 8           2             5    7     1       0.2063314590E-02       5    7    1         0.1188920874E+00      0.1922305288E+00
          0                 9           2             4    8     1       0.8965547440E-03       4    8    1         0.5076372937E-01      0.8315425736E-01
          0                10           2             4    8     1       0.3899082201E-03       4    8    1         0.2207493454E-01      0.3597897490E-01
                                                   Max.-Head-Change                         Max.-Flux-Residual
  Residual-Control   Outer-Iter.   Inner-Iter.     Column Row Layer    Maximum-Head-Change  Column Row Layer    Maximum-Flux-Residual          L2-NORM 
          0                11           2             4    8     1       0.1695813912E-03       4    8    1         0.9600171679E-02      0.1557069367E-01
          0                12           1             4    8     1       0.7375994906E-04       4    8    1         0.4175307400E-02      0.6739926883E-02

    ------------------------------------------------
       NWT REQUIRED           12 OUTER ITERATIONS 
       AND A TOTAL OF         23 INNER ITERATIONS.
    ------------------------------------------------

 NO OUTPUT CONTROL FOR STRESS PERIOD   31   TIME STEP   15
 
 SOLVING FOR HEAD 
                                                   Max.-Head-Change                         Max.-Flux-Residual
  Residual-Control   Outer-Iter.   Inner-Iter.     Column Row Layer    Maximum-Head-Change  Column Row Layer    Maximum-Flux-Residual          L2-NORM 
          0                 1           2             5    6     1       0.2583463113E+00       5    6    1         0.1403086347E+02      0.2344035994E+02
          0                 2           2             5    6     1       0.1020427752E+00       5    6    1         0.5557194786E+01      0.8981626034E+01
          0                 3           2             4    7     1      -0.6807088555E-01       4    6    1        -0.3717482089E+01      0.6771231141E+01
          0                 4           2             4    7     1       0.7205882476E-01       4    6    1         0.4005285160E+01      0.8081213235E+01
          0                 5           2             5    6     1       0.2340031511E-01       5    6    1         0.1346228313E+01      0.2552394763E+01
          0                 6           2             5    7     1       0.1002720017E-01       5    6    1         0.5754264457E+00      0.1100136837E+01
          0                 7           2             5    7     1       0.4353256906E-02       5    7    1         0.2468681156E+00      0.4769400911E+00
          0                 8           2             5    7     1       0.1889709515E-02       5    7    1         0.1071731870E+00      0.2067843539E+00
          0                 9           2             5    7     1       0.8202101159E-03       5    7    1         0.4652144701E-01      0.8966306092E-01
          0                10           2             4    8     1       0.3564140271E-03       5    7    1         0.2019155694E-01      0.3888208432E-01
                                                   Max.-Head-Change                         Max.-Flux-Residual
  Residual-Control   Outer-Iter.   Inner-Iter.     Column Row Layer    Maximum-Head-Change  Column Row Layer    Maximum-Flux-Residual          L2-NORM 
          0                11           2             4    8     1       0.1551458122E-03       4    8    1         0.8776225025E-02      0.1686255918E-01
          0                12           1             4    8     1       0.6753717136E-04       4    8    1         0.3820195639E-02      0.7313636671E-02

    ------------------------------------------------
       NWT REQUIRED           12 OUTER ITERATIONS 
       AND A TOTAL OF         23 INNER ITERATIONS.
    ------------------------------------------------

 NO OUTPUT CONTROL FOR STRESS PERIOD   31   TIME STEP   16
 
 SOLVING FOR HEAD 
                                                   Max.-Head-Change                         Max.-Flux-Residual
  Residual-Control   Outer-Iter.   Inner-Iter.     Column Row Layer    Maximum-Head-Change  Column Row Layer    Maximum-Flux-Residual          L2-NORM 
          0                 1           2             5    6     1       0.2267046978E+00       5    6    1         0.1228189116E+02      0.2184015369E+02
          0                 2           2             5    6     1       0.8965177676E-01       5    6    1         0.4879635037E+01      0.8278170822E+01
          0                 3           2             4    7     1      -0.6808423092E-01       4    6    1        -0.3715888201E+01      0.6901670458E+01
          0                 4           2             4    7     1       0.7203237067E-01       4    6    1         0.4005172806E+01      0.8006588382E+01
          0                 5           2             5    7     1       0.2271410100E-01       5    6    1         0.1300134969E+01      0.2504796186E+01
          0                 6           2             5    7     1       0.9860082305E-02       5    7    1         0.5592178987E+00      0.1078443093E+01
          0                 7           2             5    7     1       0.4279405273E-02       5    7    1         0.2427515511E+00      0.4670946029E+00
          0                 8           2             5    7     1       0.1856986802E-02       5    7    1         0.1053535760E+00      0.2023178304E+00
          0                 9           2             4    8     1       0.8064069960E-03       5    7    1         0.4571502529E-01      0.8763777971E-01
          0                10           2             4    8     1       0.3509221491E-03       4    8    1         0.1985671255E-01      0.3796428118E-01
                                                   Max.-Head-Change                         Max.-Flux-Residual
  Residual-Control   Outer-Iter.   Inner-Iter.     Column Row Layer    Maximum-Head-Change  Column Row Layer    Maximum-Flux-Residual          L2-NORM 
          0                11           2             4    8     1       0.1527071296E-03       4    8    1         0.8640803193E-02      0.1644690251E-01
          0                12           1             4    8     1       0.6645065577E-04       4    8    1         0.3760043646E-02      0.7125523299E-02

    ------------------------------------------------
       NWT REQUIRED           12 OUTER ITERATIONS 
       AND A TOTAL OF         23 INNER ITERATIONS.
    ------------------------------------------------

 NO OUTPUT CONTROL FOR STRESS PERIOD   31   TIME STEP   17
 
 SOLVING FOR HEAD 
                                                   Max.-Head-Change                         Max.-Flux-Residual
  Residual-Control   Outer-Iter.   Inner-Iter.     Column Row Layer    Maximum-Head-Change  Column Row Layer    Maximum-Flux-Residual          L2-NORM 
          0                 1           2             5    6     1       0.2095836703E+00       5    6    1         0.1133580500E+02      0.2067994905E+02
          0                 2           2             5    6     1       0.8290592416E-01       5    6    1         0.4512980257E+01      0.7734062280E+01
          0                 3           2             4    7     1      -0.6809963064E-01       4    6    1        -0.3714519796E+01      0.7039145325E+01
          0                 4           2             4    7     1       0.7200775492E-01       4    6    1         0.4005076733E+01      0.7944225609E+01
          0                 5           2             5    7     1       0.2236343146E-01       5    6    1         0.1274745784E+01      0.2462143579E+01
          0                 6           2             5    7     1       0.9705215354E-02       5    7    1         0.5505761301E+00      0.1057912418E+01
          0                 7           2             5    7     1       0.4210577580E-02       5    7    1         0.2389329298E+00      0.4573430674E+00
          0                 8           2             5    7     1       0.1826231692E-02       5    7    1         0.1036556024E+00      0.1977199794E+00
          0                 9           2             4    8     1       0.7933060484E-03       5    7    1         0.4495597453E-01      0.8548330271E-01
          0                10           2             4    8     1       0.3449945519E-03       4    8    1         0.1953316678E-01      0.3696007670E-01
                                                   Max.-Head-Change                         Max.-Flux-Residual
  Residual-Control   Outer-Iter.   Inner-Iter.     Column Row Layer    Maximum-Head-Change  Column Row Layer    Maximum-Flux-Residual          L2-NORM 
          0                11           2             4    8     1       0.1500151169E-03       4    8    1         0.8494360553E-02      0.1598098980E-01
          0                12           1             4    8     1       0.6522452122E-04       4    8    1         0.3693518026E-02      0.6910226062E-02

    ------------------------------------------------
       NWT REQUIRED           12 OUTER ITERATIONS 
       AND A TOTAL OF         23 INNER ITERATIONS.
    ------------------------------------------------

 NO OUTPUT CONTROL FOR STRESS PERIOD   31   TIME STEP   18
 
 SOLVING FOR HEAD 
                                                   Max.-Head-Change                         Max.-Flux-Residual
  Residual-Control   Outer-Iter.   Inner-Iter.     Column Row Layer    Maximum-Head-Change  Column Row Layer    Maximum-Flux-Residual          L2-NORM 
          0                 1           2             5    6     1       0.1941339256E+00       5    6    1         0.1048172172E+02      0.2044087310E+02
          0                 2           2             5    6     1       0.7685690733E-01       5    6    1         0.4182151249E+01      0.8039751180E+01
          0                 3           2             4    6     1      -0.6739329381E-01       4    6    1        -0.3711819121E+01      0.6535901485E+01
          0                 4           2             4    6     1       0.7096604988E-01       4    6    1         0.4004884064E+01      0.7349795689E+01
          0                 5           2             5    7     1       0.2244359707E-01       5    7    1         0.1254461631E+01      0.2716845196E+01
          0                 6           2             5    7     1       0.9891887958E-02       5    7    1         0.5533580780E+00      0.1181549947E+01
          0                 7           2             5    7     1       0.4356096609E-02       5    7    1         0.2438651017E+00      0.5154509877E+00
          0                 8           2             5    7     1       0.1916830105E-02       5    7    1         0.1073811316E+00      0.2249473594E+00
          0                 9           2             5    7     1       0.8428880562E-03       5    7    1         0.4724730991E-01      0.9820174202E-01
          0                10           2             5    7     1       0.3704122382E-03       5    7    1         0.2077442633E-01      0.4288319895E-01
                                                   Max.-Head-Change                         Max.-Flux-Residual
  Residual-Control   Outer-Iter.   Inner-Iter.     Column Row Layer    Maximum-Head-Change  Column Row Layer    Maximum-Flux-Residual          L2-NORM 
          0                11           2             5    7     1       0.1626881571E-03       5    7    1         0.9128776125E-02      0.1873144807E-01
          0                12           1             4    7     1       0.7168041373E-04       5    7    1         0.4009160423E-02      0.8183889285E-02

    ------------------------------------------------
       NWT REQUIRED           12 OUTER ITERATIONS 
       AND A TOTAL OF         23 INNER ITERATIONS.
    ------------------------------------------------

 NO OUTPUT CONTROL FOR STRESS PERIOD   31   TIME STEP   19
 
 SOLVING FOR HEAD 
                                                   Max.-Head-Change                         Max.-Flux-Residual
  Residual-Control   Outer-Iter.   Inner-Iter.     Column Row Layer    Maximum-Head-Change  Column Row Layer    Maximum-Flux-Residual          L2-NORM 
          0                 1           2             4    7     1       0.2882122913E+00       4    7    1         0.1536535726E+02      0.2332180571E+02
          0                 2           2             4    7     1       0.1163049318E+00       4    7    1         0.6228385895E+01      0.9211018099E+01
          0                 3           2             4    6     1      -0.6710801768E-01       4    6    1        -0.3708794183E+01      0.6371806403E+01
          0                 4           2             4    6     1       0.7105615575E-01       4    6    1         0.4004669070E+01      0.7485480842E+01
          0                 5           2             4    7     1       0.2533494482E-01       4    7    1         0.1424070276E+01      0.2778656628E+01
          0                 6           2             4    7     1       0.1112616956E-01       4    7    1         0.6243658024E+00      0.1204425688E+01
          0                 7           2             4    7     1       0.4885876715E-02       4    7    1         0.2741970269E+00      0.5235694527E+00
          0                 8           2             4    7     1       0.2145380141E-02       4    7    1         0.1204061360E+00      0.2276788375E+00
          0                 9           2             4    7     1       0.9419450674E-03       4    7    1         0.5286869147E-01      0.9903979602E-01
          0                10           2             4    7     1       0.4135251671E-03       4    7    1         0.2321173387E-01      0.4309423226E-01
                                                   Max.-Head-Change                         Max.-Flux-Residual
  Residual-Control   Outer-Iter.   Inner-Iter.     Column Row Layer    Maximum-Head-Change  Column Row Layer    Maximum-Flux-Residual          L2-NORM 
          0                11           2             4    7     1       0.1815221340E-03       4    7    1         0.1018993128E-01      0.1875583926E-01
          0                12           1             4    7     1       0.7967193844E-04       4    7    1         0.4472865794E-02      0.8164869019E-02

    ------------------------------------------------
       NWT REQUIRED           12 OUTER ITERATIONS 
       AND A TOTAL OF         23 INNER ITERATIONS.
    ------------------------------------------------

 NO OUTPUT CONTROL FOR STRESS PERIOD   31   TIME STEP   20
 
 SOLVING FOR HEAD 
                                                   Max.-Head-Change                         Max.-Flux-Residual
  Residual-Control   Outer-Iter.   Inner-Iter.     Column Row Layer    Maximum-Head-Change  Column Row Layer    Maximum-Flux-Residual          L2-NORM 
          0                 1           2             4    7     1       0.2738775910E+00       4    7    1         0.1459949488E+02      0.2199240388E+02
          0                 2           2             4    7     1       0.1104245779E+00       4    7    1         0.5918773661E+01      0.8578777065E+01
          0                 3           2             4    6     1      -0.6713067998E-01       4    6    1        -0.3706109079E+01      0.6579587396E+01
          0                 4           2             4    6     1       0.7102673989E-01       4    6    1         0.4004480701E+01      0.7400826369E+01
          0                 5           2             4    7     1       0.2489885669E-01       4    7    1         0.1400020354E+01      0.2716672038E+01
          0                 6           2             4    7     1       0.1092854937E-01       4    7    1         0.6136008295E+00      0.1169606846E+01
          0                 7           2             4    7     1       0.4795291911E-02       4    7    1         0.2693135508E+00      0.5051840120E+00
          0                 8           2             4    7     1       0.2103472624E-02       4    7    1         0.1181656388E+00      0.2183014426E+00
          0                 9           2             4    7     1       0.9224192686E-03       4    7    1         0.5183142217E-01      0.9437216345E-01
          0                10           2             4    7     1       0.4043807695E-03       4    7    1         0.2272818317E-01      0.4081251226E-01
                                                   Max.-Head-Change                         Max.-Flux-Residual
  Residual-Control   Outer-Iter.   Inner-Iter.     Column Row Layer    Maximum-Head-Change  Column Row Layer    Maximum-Flux-Residual          L2-NORM 
          0                11           2             4    7     1       0.1772248540E-03       4    7    1         0.9963386931E-02      0.1765585099E-01
          0                12           1             4    7     1       0.7764840006E-04       4    7    1         0.4366378462E-02      0.7640390142E-02

    ------------------------------------------------
       NWT REQUIRED           12 OUTER ITERATIONS 
       AND A TOTAL OF         23 INNER ITERATIONS.
    ------------------------------------------------

 NO OUTPUT CONTROL FOR STRESS PERIOD   31   TIME STEP   21
 
 SOLVING FOR HEAD 
                                                   Max.-Head-Change                         Max.-Flux-Residual
  Residual-Control   Outer-Iter.   Inner-Iter.     Column Row Layer    Maximum-Head-Change  Column Row Layer    Maximum-Flux-Residual          L2-NORM 
          0                 1           2             4    7     1       0.2570502228E+00       4    7    1         0.1369916129E+02      0.2046058164E+02
          0                 2           2             4    7     1       0.1028659752E+00       4    7    1         0.5517538880E+01      0.7836999407E+01
          0                 3           2             4    6     1      -0.6719367638E-01       4    6    1        -0.3703940639E+01      0.6814313640E+01
          0                 4           2             4    6     1       0.7098860917E-01       4    6    1         0.4004329209E+01      0.7300355337E+01
          0                 5           2             4    7     1       0.2411493225E-01       4    7    1         0.1355840290E+01      0.2645963074E+01
          0                 6           2             4    7     1       0.1048844415E-01       4    7    1         0.5887834912E+00      0.1130736761E+01
          0                 7           2             4    7     1       0.4560676272E-02       4    7    1         0.2560781211E+00      0.4847886473E+00
          0                 8           2             4    7     1       0.1982619407E-02       4    7    1         0.1113455879E+00      0.2079229205E+00
          0                 9           2             4    7     1       0.8616694514E-03       4    7    1         0.4840218850E-01      0.8920713803E-01
          0                10           2             4    7     1       0.3743976528E-03       4    7    1         0.2103527131E-01      0.3828515416E-01
                                                   Max.-Head-Change                         Max.-Flux-Residual
  Residual-Control   Outer-Iter.   Inner-Iter.     Column Row Layer    Maximum-Head-Change  Column Row Layer    Maximum-Flux-Residual          L2-NORM 
          0                11           2             4    7     1       0.1626360853E-03       4    7    1         0.9139496654E-02      0.1643547637E-01
          0                12           1             4    7     1       0.7063057822E-04       4    7    1         0.3969975431E-02      0.7057390243E-02

    ------------------------------------------------
       NWT REQUIRED           12 OUTER ITERATIONS 
       AND A TOTAL OF         23 INNER ITERATIONS.
    ------------------------------------------------

 NO OUTPUT CONTROL FOR STRESS PERIOD   31   TIME STEP   22
 
 SOLVING FOR HEAD 
                                                   Max.-Head-Change                         Max.-Flux-Residual
  Residual-Control   Outer-Iter.   Inner-Iter.     Column Row Layer    Maximum-Head-Change  Column Row Layer    Maximum-Flux-Residual          L2-NORM 
          0                 1           2             4    7     1       0.2341870222E+00       4    7    1         0.1246790624E+02      0.1885444400E+02
          0                 2           2             4    7     1       0.9282287801E-01       4    7    1         0.4979494610E+01      0.7060026564E+01
          0                 3           2             4    6     1      -0.6726813797E-01       4    6    1        -0.3702298730E+01      0.7048435175E+01
          0                 4           2             4    6     1       0.7094909555E-01       4    6    1         0.4004215716E+01      0.7207524047E+01
          0                 5           2             4    7     1       0.2331307580E-01       4    7    1         0.1310517332E+01      0.2578806039E+01
          0                 6           2             4    7     1       0.1008893893E-01       4    7    1         0.5662634084E+00      0.1093732963E+01
          0                 7           2             4    7     1       0.4364659175E-02       4    7    1         0.2450497883E+00      0.4654876976E+00
          0                 8           2             4    7     1       0.1887619580E-02       4    7    1         0.1060080106E+00      0.1981975512E+00
          0                 9           2             4    7     1       0.8160917168E-03       4    7    1         0.4584393483E-01      0.8442418954E-01
          0                10           2             4    7     1       0.3527161719E-03       4    7    1         0.1981916959E-01      0.3597471848E-01
                                                   Max.-Head-Change                         Max.-Flux-Residual
  Residual-Control   Outer-Iter.   Inner-Iter.     Column Row Layer    Maximum-Head-Change  Column Row Layer    Maximum-Flux-Residual          L2-NORM 
          0                11           2             4    7     1       0.1523967194E-03       4    7    1         0.8565466434E-02      0.1533468171E-01
          0                12           1             4    7     1       0.6582516592E-04       4    7    1         0.3700671733E-02      0.6538611210E-02

    ------------------------------------------------
       NWT REQUIRED           12 OUTER ITERATIONS 
       AND A TOTAL OF         23 INNER ITERATIONS.
    ------------------------------------------------

 NO OUTPUT CONTROL FOR STRESS PERIOD   31   TIME STEP   23
 
 SOLVING FOR HEAD 
                                                   Max.-Head-Change                         Max.-Flux-Residual
  Residual-Control   Outer-Iter.   Inner-Iter.     Column Row Layer    Maximum-Head-Change  Column Row Layer    Maximum-Flux-Residual          L2-NORM 
          0                 1           2             4    6     1       0.2378692972E+00       4    6    1         0.1272077383E+02      0.2083256231E+02
          0                 2           2             4    6     1       0.9511526756E-01       4    6    1         0.5082281918E+01      0.8190571761E+01
          0                 3           2             5    8     1      -0.6020090667E-01       5    8    1        -0.3333329207E+01      0.6426332283E+01
          0                 4           2             4    6     1       0.5376220623E-01       4    6    1         0.3014557952E+01      0.6662546740E+01
          0                 5           2             4    6     1       0.2340583391E-01       4    6    1         0.1312878914E+01      0.2840228410E+01
          0                 6           2             4    6     1       0.1018572775E-01       4    6    1         0.5715405032E+00      0.1211868166E+01
          0                 7           2             4    6     1       0.4430871757E-02       4    6    1         0.2487084973E+00      0.5174739308E+00
          0                 8           2             4    6     1       0.1926739951E-02       4    6    1         0.1081842512E+00      0.2211160694E+00
          0                 9           2             4    6     1       0.8375310293E-03       4    6    1         0.4704081966E-01      0.9454135549E-01
          0                10           2             4    6     1       0.3639394763E-03       4    6    1         0.2044702742E-01      0.4044520355E-01
                                                   Max.-Head-Change                         Max.-Flux-Residual
  Residual-Control   Outer-Iter.   Inner-Iter.     Column Row Layer    Maximum-Head-Change  Column Row Layer    Maximum-Flux-Residual          L2-NORM 
          0                11           2             4    6     1       0.1580934984E-03       4    6    1         0.8884571385E-02      0.1731141654E-01
          0                12           1             4    6     1       0.6865333338E-04       4    6    1         0.3859223066E-02      0.7413062920E-02

    ------------------------------------------------
       NWT REQUIRED           12 OUTER ITERATIONS 
       AND A TOTAL OF         23 INNER ITERATIONS.
    ------------------------------------------------

 NO OUTPUT CONTROL FOR STRESS PERIOD   31   TIME STEP   24
 
 SOLVING FOR HEAD 
                                                   Max.-Head-Change                         Max.-Flux-Residual
  Residual-Control   Outer-Iter.   Inner-Iter.     Column Row Layer    Maximum-Head-Change  Column Row Layer    Maximum-Flux-Residual          L2-NORM 
          0                 1           2             4    6     1       0.2529030806E+00       4    6    1         0.1355336773E+02      0.2049735010E+02
          0                 2           2             4    6     1       0.1002086008E+00       4    6    1         0.5368578382E+01      0.7994295557E+01
          0                 3           2             5    8     1      -0.6076147483E-01       5    8    1        -0.3362346442E+01      0.6575530212E+01
          0                 4           2             4    6     1       0.5445012044E-01       4    6    1         0.3055305717E+01      0.6621323332E+01
          0                 5           2             4    6     1       0.2356289787E-01       4    6    1         0.1322709686E+01      0.2807138697E+01
          0                 6           2             4    6     1       0.1013417435E-01       4    6    1         0.5690237481E+00      0.1189379843E+01
          0                 7           2             4    6     1       0.4355546619E-02       4    6    1         0.2446139874E+00      0.5041583838E+00
          0                 8           2             4    6     1       0.1871479935E-02       4    6    1         0.1051275043E+00      0.2138071962E+00
          0                 9           2             4    6     1       0.8039332087E-03       4    6    1         0.4516894760E-01      0.9071227782E-01
          0                10           2             4    6     1       0.3452636455E-03       4    6    1         0.1940243355E-01      0.3850170124E-01
                                                   Max.-Head-Change                         Max.-Flux-Residual
  Residual-Control   Outer-Iter.   Inner-Iter.     Column Row Layer    Maximum-Head-Change  Column Row Layer    Maximum-Flux-Residual          L2-NORM 
          0                11           2             4    6     1       0.1482454561E-03       4    6    1         0.8332375700E-02      0.1634735249E-01
          0                12           1             4    6     1       0.6363783858E-04       4    6    1         0.3577514809E-02      0.6943107115E-02

    ------------------------------------------------
       NWT REQUIRED           12 OUTER ITERATIONS 
       AND A TOTAL OF         23 INNER ITERATIONS.
    ------------------------------------------------

 NO OUTPUT CONTROL FOR STRESS PERIOD   31   TIME STEP   25
 
 SOLVING FOR HEAD 
                                                   Max.-Head-Change                         Max.-Flux-Residual
  Residual-Control   Outer-Iter.   Inner-Iter.     Column Row Layer    Maximum-Head-Change  Column Row Layer    Maximum-Flux-Residual          L2-NORM 
          0                 1           2             4    6     1       0.2308193226E+00       4    6    1         0.1235875855E+02      0.1899220055E+02
          0                 2           2             4    6     1       0.9020254504E-01       4    6    1         0.4830546409E+01      0.7294656361E+01
          0                 3           2             5    8     1      -0.6163039231E-01       5    8    1        -0.3408916705E+01      0.6810458341E+01
          0                 4           2             4    6     1       0.5290823122E-01       4    6    1         0.2967526056E+01      0.6533489992E+01
          0                 5           2             4    6     1       0.2260047737E-01       4    6    1         0.1267882500E+01      0.2742908693E+01
          0                 6           2             4    6     1       0.9651731898E-02       4    6    1         0.5415702919E+00      0.1152602872E+01
          0                 7           2             4    6     1       0.4120878294E-02       4    6    1         0.2312725039E+00      0.4847224163E+00
          0                 8           2             4    6     1       0.1759035634E-02       4    6    1         0.9873936323E-01      0.2039947708E+00
          0                 9           2             4    6     1       0.7506940972E-03       4    6    1         0.4214608254E-01      0.8590685034E-01
          0                10           2             4    6     1       0.3203007079E-03       4    6    1         0.1798572214E-01      0.3619865642E-01
                                                   Max.-Head-Change                         Max.-Flux-Residual
  Residual-Control   Outer-Iter.   Inner-Iter.     Column Row Layer    Maximum-Head-Change  Column Row Layer    Maximum-Flux-Residual          L2-NORM 
          0                11           2             4    7     1       0.1369995637E-03       4    6    1         0.7673709109E-02      0.1526119607E-01
          0                12           1             4    7     1       0.5862245409E-04       4    6    1         0.3273349779E-02      0.6437156550E-02

    ------------------------------------------------
       NWT REQUIRED           12 OUTER ITERATIONS 
       AND A TOTAL OF         23 INNER ITERATIONS.
    ------------------------------------------------

 NO OUTPUT CONTROL FOR STRESS PERIOD   31   TIME STEP   26
 
 SOLVING FOR HEAD 
                                                   Max.-Head-Change                         Max.-Flux-Residual
  Residual-Control   Outer-Iter.   Inner-Iter.     Column Row Layer    Maximum-Head-Change  Column Row Layer    Maximum-Flux-Residual          L2-NORM 
          0                 1           2             4    6     1       0.2113711043E+00       4    6    1         0.1130764333E+02      0.1766384228E+02
          0                 2           2             4    6     1       0.8242541131E-01       4    6    1         0.4413300788E+01      0.6717436272E+01
          0                 3           2             5    8     1      -0.6187345606E-01       5    8    1        -0.3420594453E+01      0.6993744597E+01
          0                 4           2             4    6     1       0.5176305475E-01       4    6    1         0.2902556589E+01      0.6458582658E+01
          0                 5           2             4    6     1       0.2193231468E-01       4    6    1         0.1229980168E+01      0.2695161839E+01
          0                 6           2             4    6     1       0.9291356501E-02       4    6    1         0.5211317776E+00      0.1125523117E+01
          0                 7           2             4    6     1       0.3935539087E-02       4    6    1         0.2207632653E+00      0.4703244995E+00
          0                 8           2             4    6     1       0.1666710648E-02       4    6    1         0.9350535644E-01      0.1966483800E+00
          0                 9           2             4    6     1       0.7057445509E-03       4    6    1         0.3959834638E-01      0.8226413738E-01
          0                10           2             4    6     1       0.2987904530E-03       4    6    1         0.1676675357E-01      0.3443006357E-01
                                                   Max.-Head-Change                         Max.-Flux-Residual
  Residual-Control   Outer-Iter.   Inner-Iter.     Column Row Layer    Maximum-Head-Change  Column Row Layer    Maximum-Flux-Residual          L2-NORM 
          0                11           2             4    6     1       0.1264789694E-03       4    6    1         0.7098274817E-02      0.1441629390E-01
          0                12           1             4    7     1       0.5363360069E-04       4    6    1         0.3004616857E-02      0.6038665688E-02

    ------------------------------------------------
       NWT REQUIRED           12 OUTER ITERATIONS 
       AND A TOTAL OF         23 INNER ITERATIONS.
    ------------------------------------------------

 NO OUTPUT CONTROL FOR STRESS PERIOD   31   TIME STEP   27
 
 SOLVING FOR HEAD 
                                                   Max.-Head-Change                         Max.-Flux-Residual
  Residual-Control   Outer-Iter.   Inner-Iter.     Column Row Layer    Maximum-Head-Change  Column Row Layer    Maximum-Flux-Residual          L2-NORM 
          0                 1           2             4    6     1       0.1925541882E+00       4    6    1         0.1029158658E+02      0.1639636932E+02
          0                 2           2             4    6     1       0.7449373158E-01       4    6    1         0.3987843630E+01      0.6140519432E+01
          0                 3           2             5    8     1      -0.6263357448E-01       5    8    1        -0.3461552311E+01      0.7197483334E+01
          0                 4           2             4    6     1       0.5060090050E-01       4    6    1         0.2836426096E+01      0.6391580042E+01
          0                 5           2             4    6     1       0.2144131612E-01       4    6    1         0.1202404940E+01      0.2646267690E+01
          0                 6           2             4    6     1       0.9081078618E-02       4    6    1         0.5094668366E+00      0.1096663117E+01
          0                 7           2             4    6     1       0.3844127336E-02       4    6    1         0.2157617656E+00      0.4545980368E+00
          0                 8           2             4    6     1       0.1626521657E-02       4    6    1         0.9132831728E-01      0.1886370192E+00
          0                 9           2             4    6     1       0.6879153371E-03       4    6    1         0.3864034265E-01      0.7832747671E-01
          0                10           2             4    6     1       0.2908250847E-03       4    6    1         0.1634144032E-01      0.3254366515E-01
                                                   Max.-Head-Change                         Max.-Flux-Residual
  Residual-Control   Outer-Iter.   Inner-Iter.     Column Row Layer    Maximum-Head-Change  Column Row Layer    Maximum-Flux-Residual          L2-NORM 
          0                11           2             4    6     1       0.1229018798E-03       4    6    1         0.6908156489E-02      0.1352878623E-01
          0                12           1             4    6     1       0.5191860016E-04       4    6    1         0.2919204267E-02      0.5626899974E-02

    ------------------------------------------------
       NWT REQUIRED           12 OUTER ITERATIONS 
       AND A TOTAL OF         23 INNER ITERATIONS.
    ------------------------------------------------

 NO OUTPUT CONTROL FOR STRESS PERIOD   31   TIME STEP   28
 
 SOLVING FOR HEAD 
                                                   Max.-Head-Change                         Max.-Flux-Residual
  Residual-Control   Outer-Iter.   Inner-Iter.     Column Row Layer    Maximum-Head-Change  Column Row Layer    Maximum-Flux-Residual          L2-NORM 
          0                 1           2             4    6     1       0.1765747011E+00       4    6    1         0.9425855793E+01      0.1540206897E+02
          0                 2           2             4    6     1       0.6762399078E-01       4    6    1         0.3617817621E+01      0.5693468874E+01
          0                 3           2             5    8     1      -0.6294436214E-01       5    8    1        -0.3477707703E+01      0.7340575278E+01
          0                 4           2             4    6     1       0.4967228613E-01       4    6    1         0.2783467654E+01      0.6344046974E+01
          0                 5           2             4    6     1       0.2085427982E-01       4    6    1         0.1169054163E+01      0.2609481317E+01
          0                 6           2             4    6     1       0.8751688143E-02       4    6    1         0.4907827499E+00      0.1074343410E+01
          0                 7           2             4    6     1       0.3671259142E-02       4    6    1         0.2059492874E+00      0.4426686048E+00
          0                 8           2             4    7     1       0.1539737437E-02       4    6    1         0.8638906740E-01      0.1825289868E+00
          0                 9           2             4    7     1       0.6467612286E-03       4    6    1         0.3622385570E-01      0.7531394007E-01
          0                10           2             4    7     1       0.2714906153E-03       4    6    1         0.1518367852E-01      0.3109455170E-01
                                                   Max.-Head-Change                         Max.-Flux-Residual
  Residual-Control   Outer-Iter.   Inner-Iter.     Column Row Layer    Maximum-Head-Change  Column Row Layer    Maximum-Flux-Residual          L2-NORM 
          0                11           2             4    7     1       0.1138925029E-03       4    6    1         0.6362298051E-02      0.1284504460E-01
          0                12           1             4    7     1       0.4775072507E-04       4    6    1         0.2665098453E-02      0.5308944152E-02

    ------------------------------------------------
       NWT REQUIRED           12 OUTER ITERATIONS 
       AND A TOTAL OF         23 INNER ITERATIONS.
    ------------------------------------------------

 NO OUTPUT CONTROL FOR STRESS PERIOD   31   TIME STEP   29
 
 SOLVING FOR HEAD 
                                                   Max.-Head-Change                         Max.-Flux-Residual
  Residual-Control   Outer-Iter.   Inner-Iter.     Column Row Layer    Maximum-Head-Change  Column Row Layer    Maximum-Flux-Residual          L2-NORM 
          0                 1           2             4    6     1       0.1645914646E+00       4    6    1         0.8785395600E+01      0.1436958380E+02
          0                 2           2             4    6     1       0.6222880715E-01       4    6    1         0.3330679337E+01      0.5211714175E+01
          0                 3           2             5    8     1      -0.6315036360E-01       5    8    1        -0.3487614607E+01      0.7511481168E+01
          0                 4           2             4    6     1       0.4897917877E-01       4    6    1         0.2744500065E+01      0.6294243551E+01
          0                 5           2             4    6     1       0.2034568187E-01       4    6    1         0.1140339756E+01      0.2565689445E+01
          0                 6           2             4    6     1       0.8448548481E-02       4    6    1         0.4736679135E+00      0.1046452220E+01
          0                 7           2             4    6     1       0.3507170425E-02       4    6    1         0.1966802183E+00      0.4271877136E+00
          0                 8           2             4    6     1       0.1455469492E-02       4    6    1         0.8164206962E-01      0.1745129100E+00
          0                 9           2             4    6     1       0.6038451056E-03       4    6    1         0.3387967517E-01      0.7133717057E-01
          0                10           2             4    6     1       0.2504543768E-03       4    6    1         0.1405533111E-01      0.2917789779E-01
                                                   Max.-Head-Change                         Max.-Flux-Residual
  Residual-Control   Outer-Iter.   Inner-Iter.     Column Row Layer    Maximum-Head-Change  Column Row Layer    Maximum-Flux-Residual          L2-NORM 
          0                11           1             4    6     1       0.1038525079E-03       4    6    1         0.5829401096E-02      0.1194031665E-01
          0                12           1             4    6     1       0.4305194191E-04       4    6    1         0.2417080682E-02      0.4888529259E-02

    ------------------------------------------------
       NWT REQUIRED           12 OUTER ITERATIONS 
       AND A TOTAL OF         22 INNER ITERATIONS.
    ------------------------------------------------

 NO OUTPUT CONTROL FOR STRESS PERIOD   31   TIME STEP   30



 STREAM LISTING     PERIOD     31   STEP       30

 LAYER ROW COL. STREAM  RCH.  FLOW INTO     FLOW TO   FLOW OUT OF   OVRLND.     DIRECT     STREAM       STREAM     STREAM     STREAM   STREAMBED  STREAMBED
                SEG.NO.  NO.  STRM. RCH.    AQUIFER    STRM. RCH.    RUNOFF     PRECIP       ET          HEAD       DEPTH      WIDTH   CONDCTNC.   GRADIENT

   1    1    1     1     1    3.1124E+01  2.7164E-01   3.0852E+01  0.000E+00  0.000E+00  0.000E+00  1.09431E+03  1.259E+00  1.417E+01  6.378E-02  1.420E+00
   1    2    2     1     2    3.0852E+01  4.2045E-01   3.0432E+01  0.000E+00  0.000E+00  0.000E+00  1.08931E+03  1.256E+00  1.411E+01  9.879E-02  1.419E+00
   1    3    3     1     3    3.0432E+01  3.5834E-01   3.0074E+01  0.000E+00  0.000E+00  0.000E+00  1.08367E+03  1.252E+00  1.404E+01  8.427E-02  1.417E+00
   1    3    4     1     4    3.0074E+01  3.2975E-01   2.9744E+01  0.000E+00  0.000E+00  0.000E+00  1.07866E+03  1.249E+00  1.398E+01  7.761E-02  1.416E+00
   1    4    5     2     1    2.7744E+01  3.3390E-01   2.7410E+01  0.000E+00  0.000E+00  0.000E+00  1.07321E+03  1.281E+00  1.200E+01  7.800E-02  1.427E+00
   1    5    6     2     2    2.7410E+01  2.5635E-01   2.7154E+01  0.000E+00  0.000E+00  0.000E+00  1.06778E+03  1.273E+00  1.200E+01  6.000E-02  1.424E+00
   1    6    6     2     3    2.7154E+01  2.5592E-01   2.6898E+01  0.000E+00  0.000E+00  0.000E+00  1.06306E+03  1.265E+00  1.200E+01  6.000E-02  1.422E+00
   1    7    6     2     4    2.6898E+01  2.5549E-01   2.6642E+01  0.000E+00  0.000E+00  0.000E+00  1.05833E+03  1.258E+00  1.200E+01  6.000E-02  1.419E+00
   1    8    6     2     5    2.6642E+01  2.5506E-01   2.6387E+01  0.000E+00  0.000E+00  0.000E+00  1.05361E+03  1.251E+00  1.200E+01  6.000E-02  1.417E+00
   1    3    5     3     1    2.0000E+00  2.8252E-01   1.7175E+00  0.000E+00  0.000E+00  0.000E+00  1.07555E+03  1.909E+00  9.636E+00  7.227E-02  1.955E+00
   1    3    6     3     2    1.7175E+00  2.4905E-01   1.4684E+00  0.000E+00  0.000E+00  0.000E+00  1.07264E+03  1.727E+00  8.909E+00  6.682E-02  1.864E+00
   1    3    7     3     3    1.4684E+00  1.9718E-01   1.2712E+00  0.000E+00  0.000E+00  0.000E+00  1.06987E+03  1.555E+00  8.218E+00  5.547E-02  1.777E+00
   1    4    8     3     4    1.2712E+00  2.2567E-01   1.0456E+00  0.000E+00  0.000E+00  0.000E+00  1.06682E+03  1.364E+00  7.455E+00  6.709E-02  1.682E+00
   1    5    8     3     5    1.0456E+00  1.5790E-01   8.8768E-01  0.000E+00  0.000E+00  0.000E+00  1.06362E+03  1.164E+00  6.655E+00  4.991E-02  1.582E+00
   1    6    8     3     6    8.8768E-01  5.5980E-02   8.3170E-01  0.000E+00  0.000E+00  0.000E+00  1.06158E+03  1.036E+00  6.145E+00  1.844E-02  1.518E+00
   1    5   10     4     1    1.0000E+01  9.0919E-02   9.9091E+00  0.000E+00  0.000E+00  0.000E+00  1.07836E+03  6.368E-01  1.000E+01  2.500E-02  1.212E+00
   1    5    9     4     2    9.9091E+00  1.8158E-01   9.7275E+00  0.000E+00  0.000E+00  0.000E+00  1.07154E+03  6.315E-01  1.000E+01  5.000E-02  1.211E+00
   1    6    8     4     3    9.7275E+00  1.2689E-01   9.6006E+00  0.000E+00  0.000E+00  0.000E+00  1.06381E+03  6.256E-01  1.000E+01  3.500E-02  1.209E+00
   1    6    8     5     1    1.0432E+01  2.2686E-01   1.0205E+01  0.000E+00  0.000E+00  0.000E+00  1.05868E+03  6.790E-01  1.542E+01  6.166E-02  1.226E+00
   1    7    7     5     2    1.0205E+01  2.7894E-01   9.9265E+00  0.000E+00  0.000E+00  0.000E+00  1.05417E+03  6.732E-01  1.519E+01  7.594E-02  1.224E+00
   1    8    7     5     3    9.9265E+00  1.9221E-01   9.7343E+00  0.000E+00  0.000E+00  0.000E+00  1.04992E+03  6.676E-01  1.497E+01  5.241E-02  1.223E+00
   1    8    6     5     4    9.7343E+00  1.3577E-01   9.5985E+00  0.000E+00  0.000E+00  0.000E+00  1.04691E+03  6.637E-01  1.482E+01  3.706E-02  1.221E+00
   1    9    6     6     1    1.3516E+01  2.3040E-01   1.3285E+01  0.000E+00  0.000E+00  0.000E+00  1.04357E+03  8.399E-01  1.200E+01  6.000E-02  1.280E+00
   1   10    7     6     2    1.3285E+01  2.2987E-01   1.3055E+01  0.000E+00  0.000E+00  0.000E+00  1.03901E+03  8.312E-01  1.200E+01  6.000E-02  1.277E+00
   1   11    7     6     3    1.3055E+01  2.2935E-01   1.2826E+01  0.000E+00  0.000E+00  0.000E+00  1.03446E+03  8.225E-01  1.200E+01  6.000E-02  1.274E+00
   1   12    7     6     4    1.2826E+01  2.2883E-01   1.2597E+01  0.000E+00  0.000E+00  0.000E+00  1.02990E+03  8.138E-01  1.200E+01  6.000E-02  1.271E+00
   1   13    7     6     5    1.2597E+01  5.4553E-03   1.2592E+01  0.000E+00  0.000E+00  0.000E+00  1.02672E+03  8.092E-01  1.200E+01  2.400E-02  7.577E-02
   1   14    9     7     1    1.5000E+02  1.3999E+00   1.4860E+02  0.000E+00  0.000E+00  0.000E+00  1.03987E+03  2.288E+00  5.529E+01  5.593E-01  8.343E-01
   1   13    8     7     2    1.4860E+02  2.0317E+00   1.4657E+02  0.000E+00  0.000E+00  0.000E+00  1.03478E+03  2.278E+00  5.525E+01  6.147E-01  1.102E+00
   1   13    7     7     3    1.4657E+02  1.7848E+00   1.4478E+02  0.000E+00  0.000E+00  0.000E+00  1.02969E+03  2.268E+00  5.521E+01  5.583E-01  1.066E+00
   1   13    6     8     1    1.5738E+02  1.1475E+00   1.5623E+02  0.000E+00  0.000E+00  0.000E+00  1.02474E+03  2.864E+00  4.153E+01  4.232E-01  9.038E-01
   1   13    5     8     2    1.5623E+02  3.8587E-01   1.5584E+02  0.000E+00  0.000E+00  0.000E+00  1.01848E+03  2.859E+00  4.145E+01  4.224E-01  3.045E-01
   1   13    4     8     3    1.5584E+02 -1.7235E+00   1.5757E+02  0.000E+00  0.000E+00  0.000E+00  1.01224E+03  2.863E+00  4.152E+01  4.231E+00 -1.358E-01
   1   13    3     8     4    1.5757E+02 -3.2805E+00   1.6085E+02  0.000E+00  0.000E+00  0.000E+00  1.00601E+03  2.880E+00  4.177E+01  4.256E+00 -2.569E-01
   1   13    2     8     5    1.6085E+02 -2.4787E+00   1.6332E+02  0.000E+00  0.000E+00  0.000E+00  9.99775E+02  2.900E+00  4.205E+01  4.285E+00 -1.928E-01
   1   13    1     8     6    1.6332E+02 -1.9525E+00   1.6528E+02  0.000E+00  0.000E+00  0.000E+00  9.94790E+02  2.915E+00  4.226E+01  2.584E+00 -2.519E-01
   1    8    6     9     1    2.2470E+01  0.0000E+00   2.2470E+01  0.000E+00  0.000E+00  0.000E+00  1.08243E+03  3.683E+00  4.000E+00  0.000E+00  2.228E+00
   1    8    5     9     2    2.2470E+01  0.0000E+00   2.2470E+01  0.000E+00  0.000E+00  0.000E+00  1.08193E+03  3.683E+00  4.000E+00  0.000E+00  2.228E+00





UNSATURATED ZONE PACKAGE VOLUMETRIC BUDGET FOR  TIME STEP    30 STRESS PERIOD   31
  ------------------------------------------------------------------------------



     CUMULATIVE VOLUMES      L**3       RATES FOR THIS TIME STEP      L**3/T
     ------------------                 ------------------------

           IN:                                      IN:
           ---                                      ---
        INFILTRATION =  4657424029.8534          INFILTRATION =          23.3179

          OUT:                                     OUT:
          ----                                     ----
              UZF ET =   957681149.0467                UZF ET =          23.3175
        UZF RECHARGE =  3144958205.8861          UZF RECHARGE =          56.7049

            IN - OUT =   554784674.9206              IN - OUT =         -56.7044

          STORAGE:                                 STORAGE:
          --------                                 --------
      STORAGE CHANGE =   554820046.4802        STORAGE CHANGE =         -56.7044

 PERCENT DISCREPANCY IS DIFFERENCE BETWEEN IN-OUT MINUS CHANGE IN STORAGE
 DIVIDED BY THE AVERAGE OF IN AND OUT TIMES 100

 PERCENT DISCREPANCY =          -0.00     PERCENT DISCREPANCY =           0.00






1
  VOLUMETRIC BUDGET FOR AGRICULTURAL FIELDS AT  END OF TIME STEP   30, STRESS PERIOD  31
  ------------------------------------------------------------------------------

     CUMULATIVE VOLUMES      L**3       RATES FOR THIS TIME STEP      L**3/T
     ------------------                 ------------------------

           IN:                                      IN:
           ---                                      ---
               AG WELLS  =  3942616832.0000                 AG WELLS  =           0.0000
      DIVERSION SEGMENTS =   647862912.0000        DIVERSION SEGMENTS =          22.4700
           GW IRRIGATION =           0.0000             GW IRRIGATION =           0.0000
           SW IRRIGATION =           0.0000             SW IRRIGATION =           0.0000
        SYSTEM LOSSES GW =           0.0000          SYSTEM LOSSES GW =           0.0000
        SYSTEM LOSSES SW =           0.0000          SYSTEM LOSSES SW =           0.0000

                TOTAL IN =  4590479872.0000                  TOTAL IN =          22.4700

          OUT:                                     OUT:
          ----                                     ----
               AG WELLS  =           0.0000                 AG WELLS  =           0.0000
      DIVERSION SEGMENTS =           0.0000        DIVERSION SEGMENTS =           0.0000
           GW IRRIGATION =  3942616832.0000             GW IRRIGATION =           0.0000
           SW IRRIGATION =   647875776.0000             SW IRRIGATION =          22.4704
        SYSTEM LOSSES GW =           0.0000          SYSTEM LOSSES GW =           0.0000
        SYSTEM LOSSES SW =           0.0000          SYSTEM LOSSES SW =           0.0000

               TOTAL OUT =  4590492672.0000                 TOTAL OUT =          22.4704

                IN - OUT =      -12800.0000                  IN - OUT =      -4.4823E-04

     PERCENT DISCREPANCY =          -0.00         PERCENT DISCREPANCY =          -0.00



1
  VOLUMETRIC BUDGET FOR ENTIRE MODEL AT END OF TIME STEP   30, STRESS PERIOD  31
  ------------------------------------------------------------------------------

     CUMULATIVE VOLUMES      L**3       RATES FOR THIS TIME STEP      L**3/T
     ------------------                 ------------------------

           IN:                                      IN:
           ---                                      ---
             STORAGE     =  3948224768.0000               STORAGE     =           5.1573
       CONSTANT HEAD     =           0.0000         CONSTANT HEAD     =           0.0000
     HEAD DEP BOUNDS     =    22796752.0000       HEAD DEP BOUNDS     =           0.2901
      STREAM LEAKAGE     =   948649856.0000        STREAM LEAKAGE     =          12.8120
        UZF RECHARGE     =  3144957696.0000          UZF RECHARGE     =          56.7049
               GW ET     =           0.0000                 GW ET     =           0.0000
     SURFACE LEAKAGE     =           0.0000       SURFACE LEAKAGE     =           0.0000
           AG WELLS      =           0.0000             AG WELLS      =           0.0000

                TOTAL IN =  8064628736.0000                  TOTAL IN =          74.9643

          OUT:                                     OUT:
          ----                                     ----
             STORAGE     =  3326921984.0000               STORAGE     =          65.2376
       CONSTANT HEAD     =           0.0000         CONSTANT HEAD     =           0.0000
     HEAD DEP BOUNDS     =    22699664.0000       HEAD DEP BOUNDS     =           0.2867
      STREAM LEAKAGE     =   772316480.0000        STREAM LEAKAGE     =           9.4352
        UZF RECHARGE     =           0.0000          UZF RECHARGE     =           0.0000
               GW ET     =           0.0000                 GW ET     =           0.0000
     SURFACE LEAKAGE     =           0.0000       SURFACE LEAKAGE     =           0.0000
           AG WELLS      =  3942616832.0000             AG WELLS      =           0.0000

               TOTAL OUT =  8064555008.0000                 TOTAL OUT =          74.9595

                IN - OUT =       73728.0000                  IN - OUT =       4.8218E-03

     PERCENT DISCREPANCY =           0.00         PERCENT DISCREPANCY =           0.01






         TIME SUMMARY AT END OF TIME STEP   30 IN STRESS PERIOD   31
                    SECONDS     MINUTES      HOURS       DAYS        YEARS
                    -----------------------------------------------------------
   TIME STEP LENGTH  87667.      1461.1      24.352      1.0147     2.77799E-03
 STRESS PERIOD TIME 2.63000E+06  43833.      730.56      30.440     8.33397E-02
         TOTAL TIME 7.89864E+07 1.31644E+06  21941.      914.20      2.5029    
1
1
                            STRESS PERIOD NO.   32, LENGTH =   2630000.    
                            -----------------------------------------------

                              NUMBER OF TIME STEPS =    30

                               MULTIPLIER FOR DELT =     1.000

                            INITIAL TIME STEP SIZE =   87666.66    

 REUSING NON-PARAMETER GHB CELLS FROM LAST STRESS PERIOD

      2 GHB CELLS

 REUSING STREAM SEGMENT DATA FROM LAST STRESS PERIOD



            AREAL INFILTRATION RATE
 READING ON UNIT   19 WITH FORMAT: (FREE)              

            1           2           3           4           5           6           7           8           9          10
 ........................................................................................................................
   1   1.0000E-10  2.0000E-10   0.000       0.000       0.000       0.000       0.000       0.000       0.000       0.000    
   2   2.0000E-10  1.0000E-10  2.0000E-10   0.000       0.000      8.0000E-10  8.0000E-10  5.0000E-10   0.000       0.000    
   3    0.000      5.0000E-10  1.0000E-10  1.0000E-10  8.0000E-10  8.0000E-10  5.0000E-10  5.0000E-10   0.000       0.000    
   4   8.0000E-10  5.0000E-10  1.0000E-10  1.0000E-10  1.0000E-10  1.0000E-10  1.0000E-10  1.0000E-10  2.0000E-10   0.000    
   5   8.0000E-10  5.0000E-10  1.0000E-10  1.0000E-10  1.0000E-10  1.0000E-10  1.0000E-10  1.0000E-10  1.0000E-10  1.0000E-10
   6   8.0000E-10  5.0000E-10  5.0000E-10  2.0000E-10  2.0000E-10  1.0000E-10  1.0000E-10  1.0000E-10  1.0000E-10  5.0000E-10
   7   8.0000E-10  5.0000E-10  5.0000E-10  2.0000E-10  2.0000E-10  1.0000E-10  1.0000E-10  2.0000E-10  2.0000E-10   0.000    
   8    0.000      5.0000E-10  5.0000E-10  2.0000E-10  2.0000E-10  1.0000E-10  1.0000E-10  2.0000E-10  5.0000E-10   0.000    
   9    0.000      5.0000E-10  5.0000E-10  2.0000E-10  2.0000E-10  1.0000E-10  1.0000E-10  2.0000E-10  5.0000E-10   0.000    
  10    0.000      5.0000E-10  5.0000E-10  2.0000E-10  2.0000E-10  1.0000E-10  1.0000E-10  2.0000E-10  5.0000E-10  8.0000E-10
  11    0.000      1.0000E-10  1.0000E-10  1.0000E-10  1.0000E-10  1.0000E-10  1.0000E-10  2.0000E-10  5.0000E-10   0.000    
  12   1.0000E-10  1.0000E-10  1.0000E-10  1.0000E-10  1.0000E-10  1.0000E-10  1.0000E-10  1.0000E-10  2.0000E-10   0.000    
  13   1.0000E-10  1.0000E-10  2.0000E-10  2.0000E-10  2.0000E-10  2.0000E-10  2.0000E-10  1.0000E-10  1.0000E-10   0.000    
  14    0.000      2.0000E-10  5.0000E-10  5.0000E-10  5.0000E-10  5.0000E-10  5.0000E-10  2.0000E-10  1.0000E-10   0.000    
  15    0.000       0.000      8.0000E-10  8.0000E-10  8.0000E-10  8.0000E-10   0.000       0.000       0.000       0.000    

                  ET RATE =  4.000000E-07

 USING ET EXTINCTION DEPTH FROM PREVIOUS STRESS PERIOD. CURRENT PERIOD IS:      32

 USING EXTINCTION WATER CONTENT FROM PREVIOUS STRESS PERIOD. CURRENT PERIOD IS:      32

 USING AIR ENTRY PRESSURE FROM PREVIOUS STRESS PERIOD. CURRENT PERIOD IS:      32

 USING ROOT PRESSURE HEAD FROM PREVIOUS STRESS PERIOD. CURRENT PERIOD IS:      32

 USING ROOT ACTIVITY FROM PREVIOUS STRESS PERIOD. CURRENT PERIOD IS:      32

 PROCESSING AG STRESS PERIOD DATA

 READING AG STRESS PERIOD DATA

 READING IRRIGATION SEGMENT

 READING IRRIGATION WELL

 READING SUPPLEMENTAL WELL

 END PROCESSING AG STRESS PERIOD DATA OPTIONS
 
 SOLVING FOR HEAD 
                                                   Max.-Head-Change                         Max.-Flux-Residual
  Residual-Control   Outer-Iter.   Inner-Iter.     Column Row Layer    Maximum-Head-Change  Column Row Layer    Maximum-Flux-Residual          L2-NORM 
          0                 1           2             4    6     1       0.1492235932E+00       4    6    1         0.7949920466E+01      0.1352723654E+02
          0                 2           2             5    8     1      -0.2118328390E+00       5    8    1        -0.1168849667E+02      0.2573629757E+02
          0                 3           2             4    8     1      -0.7784145982E-01       4    8    1        -0.4235412141E+01      0.9914735267E+01
          0                 4           2             4    8     1      -0.2981201201E-01       4    8    1        -0.1648859286E+01      0.3559878945E+01
          0                 5           2             4    7     1      -0.1117961930E-01       4    7    1        -0.6163732749E+00      0.1040317530E+01
          0                 6           2             4    7     1      -0.4337138449E-02       4    7    1        -0.2396549122E+00      0.3403861740E+00
          0                 7           2             4    6     1      -0.1687059709E-02       4    6    1        -0.9324938064E-01      0.1316556086E+00
          0                 8           2             4    6     1      -0.6620677982E-03       4    6    1        -0.3660975465E-01      0.5138510759E-01
          0                 9           2             4    6     1      -0.2597709810E-03       4    6    1        -0.1436622215E-01      0.2005515720E-01
          0                10           1             4    6     1      -0.1019056579E-03       4    6    1        -0.5636491464E-02      0.7827732258E-02
          0                11           1             4    6     1      -0.3996949105E-04       4    6    1        -0.2211031826E-02      0.3055365939E-02

    ------------------------------------------------
       NWT REQUIRED           11 OUTER ITERATIONS 
       AND A TOTAL OF         20 INNER ITERATIONS.
    ------------------------------------------------

 NO OUTPUT CONTROL FOR STRESS PERIOD   32   TIME STEP    1
 
 SOLVING FOR HEAD 
                                                   Max.-Head-Change                         Max.-Flux-Residual
  Residual-Control   Outer-Iter.   Inner-Iter.     Column Row Layer    Maximum-Head-Change  Column Row Layer    Maximum-Flux-Residual          L2-NORM 
          0                 1           2             4    6     1       0.1488680931E+00       4    6    1         0.7940686757E+01      0.1276302934E+02
          0                 2           2             5    8     1      -0.7030259832E-01       5    8    1        -0.3903843864E+01      0.6419566624E+01
          0                 3           2             4    6     1       0.3610980633E-01       4    6    1         0.2030859130E+01      0.3832702873E+01
          0                 4           2             4    6     1       0.1316793226E-01       4    6    1         0.7412237650E+00      0.1344219485E+01
          0                 5           2             4    7     1      -0.1728833437E+01       5    8    1        -0.9824770803E+02      0.2404304771E+03
          0                 6           2             4    6     1      -0.1621039224E+00       4    6    1        -0.9405682750E+01      0.1481404703E+02
          0                 7           2             4    6     1       0.2001463871E-02       4    6    1         0.1193559757E+00      0.1879852922E+00
          0                 8           1             4    6     1       0.2939769666E-04       4    6    1         0.1753093271E-02      0.2761119803E-02

    ------------------------------------------------
       NWT REQUIRED            8 OUTER ITERATIONS 
       AND A TOTAL OF         15 INNER ITERATIONS.
    ------------------------------------------------

 NO OUTPUT CONTROL FOR STRESS PERIOD   32   TIME STEP    2
 
 SOLVING FOR HEAD 
                                                   Max.-Head-Change                         Max.-Flux-Residual
  Residual-Control   Outer-Iter.   Inner-Iter.     Column Row Layer    Maximum-Head-Change  Column Row Layer    Maximum-Flux-Residual          L2-NORM 
          0                 1           2             4    6     1       0.6679960065E-01       4    6    1         0.3593706109E+01      0.4794593595E+01
          0                 2           2             4    6     1      -0.1255561333E+00       4    6    1        -0.6838186158E+01      0.1627873206E+02
          0                 3           2             4    7     1       0.7940175554E-01       4    6    1         0.4391738236E+01      0.1072229499E+02
          0                 4           2             4    7     1      -0.1174129840E+00       4    6    1        -0.6658401934E+01      0.1630825310E+02
          0                 5           2             4    7     1       0.1447670185E-02       5    7    1         0.8436738941E-01      0.2066778613E+00
          0                 6           1             4    7     1       0.2129121008E-04       5    8    1         0.1243026288E-02      0.3046067514E-02

    ------------------------------------------------
       NWT REQUIRED            6 OUTER ITERATIONS 
       AND A TOTAL OF         11 INNER ITERATIONS.
    ------------------------------------------------

 NO OUTPUT CONTROL FOR STRESS PERIOD   32   TIME STEP    3
 
 SOLVING FOR HEAD 
                                                   Max.-Head-Change                         Max.-Flux-Residual
  Residual-Control   Outer-Iter.   Inner-Iter.     Column Row Layer    Maximum-Head-Change  Column Row Layer    Maximum-Flux-Residual          L2-NORM 
          0                 1           2             4    6     1       0.6764210957E-01       4    6    1         0.3637370730E+01      0.5015796466E+01
          0                 2           2             4    6     1      -0.7848926317E-01       4    6    1        -0.4276853231E+01      0.1005020364E+02
          0                 3           2             4    7     1       0.4040821381E-01       4    6    1         0.2240740577E+01      0.5455309167E+01
          0                 4           2             4    7     1      -0.2441126684E-01       4    6    1        -0.1384709658E+01      0.3390457672E+01
          0                 5           2             4    7     1       0.3009979212E-03       4    7    1         0.1754109747E-01      0.4297061641E-01
          0                 6           1             4    7     1       0.4426846150E-05       5    8    1         0.2584136928E-03      0.6333371691E-03

    ------------------------------------------------
       NWT REQUIRED            6 OUTER ITERATIONS 
       AND A TOTAL OF         11 INNER ITERATIONS.
    ------------------------------------------------

 NO OUTPUT CONTROL FOR STRESS PERIOD   32   TIME STEP    4
 
 SOLVING FOR HEAD 
                                                   Max.-Head-Change                         Max.-Flux-Residual
  Residual-Control   Outer-Iter.   Inner-Iter.     Column Row Layer    Maximum-Head-Change  Column Row Layer    Maximum-Flux-Residual          L2-NORM 
          0                 1           2             4    6     1       0.6650442550E-01       4    6    1         0.3574684062E+01      0.5013643407E+01
          0                 2           2             4    6     1      -0.9963422511E-01       4    6    1        -0.5427264132E+01      0.1287695833E+02
          0                 3           2             4    7     1      -0.4550778877E+00       4    8    1        -0.2443127990E+02      0.5982814540E+02
          0                 4           2             4    7     1       0.3099233887E-01       4    8    1         0.1710347735E+01      0.4188148743E+01
          0                 5           2             4    7     1      -0.1233512223E-02       5    7    1        -0.6996854784E-01      0.1713355590E+00
          0                 6           1             4    7     1       0.1522102336E-04       5    7    1         0.8873749780E-03      0.2180163124E-02

    ------------------------------------------------
       NWT REQUIRED            6 OUTER ITERATIONS 
       AND A TOTAL OF         11 INNER ITERATIONS.
    ------------------------------------------------

 NO OUTPUT CONTROL FOR STRESS PERIOD   32   TIME STEP    5
 
 SOLVING FOR HEAD 
                                                   Max.-Head-Change                         Max.-Flux-Residual
  Residual-Control   Outer-Iter.   Inner-Iter.     Column Row Layer    Maximum-Head-Change  Column Row Layer    Maximum-Flux-Residual          L2-NORM 
          0                 1           2             4    6     1       0.7454813521E-01       4    6    1         0.4005578207E+01      0.6276655552E+01
          0                 2           2             4    6     1      -0.7916109874E-01       4    6    1        -0.4313679024E+01      0.1018422994E+02
          0                 3           2             4    7     1      -0.1785056538E+01       4    8    1        -0.9580428406E+02      0.2346550420E+03
          0                 4           2             4    7     1       0.1215550732E+00       5    8    1         0.6707371174E+01      0.1642660004E+02
          0                 5           2             4    7     1      -0.4838022744E-02       5    8    1        -0.2744523589E+00      0.6720922614E+00
          0                 6           1             4    7     1       0.5969906776E-04       5    8    1         0.3481370738E-02      0.8540248069E-02

    ------------------------------------------------
       NWT REQUIRED            6 OUTER ITERATIONS 
       AND A TOTAL OF         11 INNER ITERATIONS.
    ------------------------------------------------

 NO OUTPUT CONTROL FOR STRESS PERIOD   32   TIME STEP    6
 
 SOLVING FOR HEAD 
                                                   Max.-Head-Change                         Max.-Flux-Residual
  Residual-Control   Outer-Iter.   Inner-Iter.     Column Row Layer    Maximum-Head-Change  Column Row Layer    Maximum-Flux-Residual          L2-NORM 
          0                 1           2             4    6     1       0.1063915168E+00       4    6    1         0.5715773086E+01      0.1171964526E+02
          0                 2           2             4    6     1      -0.1294081839E+00       4    6    1        -0.7050390691E+01      0.1689737279E+02
          0                 3           2             4    7     1       0.7948569536E-01       4    6    1         0.4406630951E+01      0.1076516341E+02
          0                 4           2             4    7     1      -0.1174185344E+00       4    6    1        -0.6659018047E+01      0.1631000087E+02
          0                 5           2             4    7     1       0.1447738713E-02       4    7    1         0.8436719959E-01      0.2066997666E+00
          0                 6           1             4    7     1       0.2129221732E-04       5    8    1         0.1243229544E-02      0.3048334477E-02

    ------------------------------------------------
       NWT REQUIRED            6 OUTER ITERATIONS 
       AND A TOTAL OF         11 INNER ITERATIONS.
    ------------------------------------------------

 NO OUTPUT CONTROL FOR STRESS PERIOD   32   TIME STEP    7
 
 SOLVING FOR HEAD 
                                                   Max.-Head-Change                         Max.-Flux-Residual
  Residual-Control   Outer-Iter.   Inner-Iter.     Column Row Layer    Maximum-Head-Change  Column Row Layer    Maximum-Flux-Residual          L2-NORM 
          0                 1           2             4    6     1       0.1060252956E+00       4    6    1         0.5694452313E+01      0.1178772346E+02
          0                 2           2             4    6     1      -0.8222345095E-01       4    6    1        -0.4482558743E+01      0.1065072696E+02
          0                 3           2             4    7     1       0.4049832252E-01       4    6    1         0.2255158471E+01      0.5496685969E+01
          0                 4           2             4    7     1      -0.2441535194E-01       4    6    1        -0.1385305600E+01      0.3392149422E+01
          0                 5           2             4    7     1       0.3010483099E-03       4    6    1         0.1754632206E-01      0.4299054158E-01
          0                 6           1             4    7     1       0.4427587248E-05       5    8    1         0.2585996667E-03      0.6339938430E-03

    ------------------------------------------------
       NWT REQUIRED            6 OUTER ITERATIONS 
       AND A TOTAL OF         11 INNER ITERATIONS.
    ------------------------------------------------

 NO OUTPUT CONTROL FOR STRESS PERIOD   32   TIME STEP    8
 
 SOLVING FOR HEAD 
                                                   Max.-Head-Change                         Max.-Flux-Residual
  Residual-Control   Outer-Iter.   Inner-Iter.     Column Row Layer    Maximum-Head-Change  Column Row Layer    Maximum-Flux-Residual          L2-NORM 
          0                 1           2             5    8     1       0.2941683260E+00       5    8    1         0.1620690818E+02      0.1933662322E+02
          0                 2           2             4    6     1      -0.1032535169E+00       4    6    1        -0.5626687914E+01      0.1298516864E+02
          0                 3           2             4    7     1      -0.4549758011E+00       4    7    1        -0.2441764652E+02      0.5901160205E+02
          0                 4           2             5    8     1      -0.2397208389E+00       5    8    1        -0.1365103268E+02      0.1417580912E+02
          0                 5           2             5    8     1      -0.1406514083E+00       5    8    1        -0.7976365993E+01      0.7978006291E+01
          0                 6           2             5    8     1      -0.1059952750E-01       5    8    1        -0.6010018822E+00      0.6010762046E+00
          0                 7           1             5    8     1       0.7220907618E-03       5    8    1         0.4212317439E-01      0.4212806695E-01
          0                 8           1             5    8     1      -0.2875314136E-04       5    8    1        -0.1724796259E-02      0.1725471416E-02

    ------------------------------------------------
       NWT REQUIRED            8 OUTER ITERATIONS 
       AND A TOTAL OF         14 INNER ITERATIONS.
    ------------------------------------------------

 NO OUTPUT CONTROL FOR STRESS PERIOD   32   TIME STEP    9
 
 SOLVING FOR HEAD 
                                                   Max.-Head-Change                         Max.-Flux-Residual
  Residual-Control   Outer-Iter.   Inner-Iter.     Column Row Layer    Maximum-Head-Change  Column Row Layer    Maximum-Flux-Residual          L2-NORM 
          0                 1           2             5    8     1       0.1907092065E+01       5    8    1         0.1047393864E+03      0.1091911272E+03
          0                 2           2             5    8     1       0.1030908245E+01       5    8    1         0.5664786325E+02      0.5870285279E+02
          0                 3           2             4    7     1      -0.1782345093E+01       4    7    1        -0.9578570394E+02      0.2191269084E+03
          0                 4           2             4    8     1      -0.8295446371E+00       4    8    1        -0.4577000195E+02      0.6260703864E+02
          0                 5           2             5    8     1      -0.4117152196E+00       5    8    1        -0.2342207337E+02      0.2366255462E+02
          0                 6           2             5    8     1      -0.2415210690E+00       5    8    1        -0.1370013018E+02      0.1370094054E+02
          0                 7           2             5    8     1      -0.1416826546E+00       5    8    1        -0.8037849110E+01      0.8037866305E+01
          0                 8           2             5    8     1      -0.8311518086E-01       5    8    1        -0.4715082347E+01      0.4715093994E+01
          0                 9           2             5    8     1      -0.4875778651E-01       5    8    1        -0.2765946851E+01      0.2765953682E+01
          0                10           2             5    8     1      -0.2860265860E-01       5    8    1        -0.1622554255E+01      0.1622558269E+01
                                                   Max.-Head-Change                         Max.-Flux-Residual
  Residual-Control   Outer-Iter.   Inner-Iter.     Column Row Layer    Maximum-Head-Change  Column Row Layer    Maximum-Flux-Residual          L2-NORM 
          0                11           2             5    8     1      -0.1677903320E-01       5    8    1        -0.9518181045E+00      0.9518204616E+00
          0                12           2             5    8     1      -0.9842947612E-02       5    8    1        -0.5583507745E+00      0.5583521580E+00
          0                13           1             5    8     1      -0.5774054618E-02       5    8    1        -0.3275353509E+00      0.3275361627E+00
          0                14           1             5    8     1      -0.3387146161E-02       5    8    1        -0.1921351487E+00      0.1921356250E+00
          0                15           1             5    8     1      -0.1986937664E-02       5    8    1        -0.1127075116E+00      0.1127077910E+00
          0                16           1             5    8     1      -0.1165552269E-02       5    8    1        -0.6611442033E-01      0.6611458425E-01
          0                17           1             5    8     1      -0.6837171059E-03       5    8    1        -0.3878258536E-01      0.3878268153E-01
          0                18           1             5    8     1      -0.4010682660E-03       5    8    1        -0.2274963912E-01      0.2274969555E-01
          0                19           1             5    8     1      -0.2352649922E-03       5    8    1        -0.1334471912E-01      0.1334475221E-01
          0                20           1             5    8     1      -0.1380045685E-03       5    8    1        -0.7827832438E-02      0.7827851916E-02
          0                21           1             5    8     1      -0.8095184732E-04       5    8    1        -0.4591670915E-02      0.4591682374E-02

    ------------------------------------------------
       NWT REQUIRED           21 OUTER ITERATIONS 
       AND A TOTAL OF         33 INNER ITERATIONS.
    ------------------------------------------------

 NO OUTPUT CONTROL FOR STRESS PERIOD   32   TIME STEP   10
 
 SOLVING FOR HEAD 
                                                   Max.-Head-Change                         Max.-Flux-Residual
  Residual-Control   Outer-Iter.   Inner-Iter.     Column Row Layer    Maximum-Head-Change  Column Row Layer    Maximum-Flux-Residual          L2-NORM 
          0                 1           2             5    8     1       0.1381476551E+01       5    8    1         0.7436761894E+02      0.1261701215E+03
          0                 2           2             4    8     1       0.6851528775E+00       4    8    1         0.3695898494E+02      0.5063096413E+02
          0                 3           2             4    8     1       0.4778657937E+00       4    8    1         0.2574065929E+02      0.3686004262E+02
          0                 4           2             4    8     1       0.1594911782E+00       4    8    1         0.8749094921E+01      0.1338663750E+02
          0                 5           2             4    8     1       0.9291783869E-01       4    8    1         0.5069481740E+01      0.6151713074E+01
          0                 6           2             4    8     1       0.5429612753E-01       4    8    1         0.2955356108E+01      0.3512831130E+01
          0                 7           2             4    8     1       0.3177185576E-01       4    8    1         0.1727440552E+01      0.2037573922E+01
          0                 8           2             4    8     1       0.1860533299E-01       4    8    1         0.1010956245E+01      0.1186116118E+01
          0                 9           2             4    8     1       0.1090036832E-01       4    8    1         0.5920414528E+00      0.6914521072E+00
          0                10           2             4    8     1       0.6388712962E-02       4    8    1         0.3468765646E+00      0.4035017456E+00
                                                   Max.-Head-Change                         Max.-Flux-Residual
  Residual-Control   Outer-Iter.   Inner-Iter.     Column Row Layer    Maximum-Head-Change  Column Row Layer    Maximum-Flux-Residual          L2-NORM 
          0                11           2             4    8     1       0.3745738627E-02       4    8    1         0.2033123914E+00      0.2356891698E+00
          0                12           2             4    8     1       0.2196884413E-02       4    8    1         0.1192075217E+00      0.1377966804E+00
          0                13           2             4    8     1       0.1288904756E-02       4    8    1         0.6991796612E-01      0.8063899224E-01
          0                14           2             4    8     1       0.7564452311E-03       4    8    1         0.4102193398E-01      0.4723474010E-01
          0                15           2             4    8     1       0.4440949977E-03       4    8    1         0.2407586213E-01      0.2769456693E-01
          0                16           2             4    8     1       0.2608074414E-03       4    8    1         0.1413479530E-01      0.1625414201E-01
          0                17           2             4    8     1       0.1532194834E-03       4    8    1         0.8301243701E-02      0.9549711768E-02
          0                18           1             4    8     1       0.9004558446E-04       4    8    1         0.4876935325E-02      0.5616860998E-02

    ------------------------------------------------
       NWT REQUIRED           18 OUTER ITERATIONS 
       AND A TOTAL OF         35 INNER ITERATIONS.
    ------------------------------------------------

 NO OUTPUT CONTROL FOR STRESS PERIOD   32   TIME STEP   11
 
 SOLVING FOR HEAD 
                                                   Max.-Head-Change                         Max.-Flux-Residual
  Residual-Control   Outer-Iter.   Inner-Iter.     Column Row Layer    Maximum-Head-Change  Column Row Layer    Maximum-Flux-Residual          L2-NORM 
          0                 1           2             4    7     1       0.2088323656E+01       4    7    1         0.1100538368E+03      0.2143708798E+03
          0                 2           2             4    7     1       0.1175761796E+01       4    7    1         0.6287508832E+02      0.1024854330E+03
          0                 3           2             4    7     1       0.7360442158E+00       4    7    1         0.3945404393E+02      0.6179698739E+02
          0                 4           2             4    7     1       0.4121931143E+00       4    7    1         0.2218168896E+02      0.2914982966E+02
          0                 5           2             4    7     1       0.2434557923E+00       4    7    1         0.1312048777E+02      0.1697191986E+02
          0                 6           2             4    7     1       0.1403942769E+00       4    7    1         0.7563382054E+01      0.9889907179E+01
          0                 7           2             4    6     1       0.6987557269E-01       4    6    1         0.3785321638E+01      0.4138024025E+01
          0                 8           2             4    6     1       0.4090437244E-01       4    6    1         0.2224605552E+01      0.2257066894E+01
          0                 9           2             4    6     1       0.2389431146E-01       4    6    1         0.1301388348E+01      0.1304813131E+01
          0                10           2             4    6     1       0.1394692486E-01       4    6    1         0.7600187026E+00      0.7605342435E+00
                                                   Max.-Head-Change                         Max.-Flux-Residual
  Residual-Control   Outer-Iter.   Inner-Iter.     Column Row Layer    Maximum-Head-Change  Column Row Layer    Maximum-Flux-Residual          L2-NORM 
          0                11           2             4    6     1       0.8138335959E-02       4    6    1         0.4435762915E+00      0.4437085554E+00
          0                12           2             4    6     1       0.4748380359E-02       4    6    1         0.2588276270E+00      0.2588806121E+00
          0                13           2             4    6     1       0.2770369735E-02       4    6    1         0.1510132254E+00      0.1510398860E+00
          0                14           2             4    6     1       0.1616305184E-02       4    6    1         0.8810593298E-01      0.8812064244E-01
          0                15           2             4    6     1       0.9429887766E-03       4    6    1         0.5140318353E-01      0.5141158747E-01
          0                16           2             4    6     1       0.5501596734E-03       4    6    1         0.2998975298E-01      0.2999461766E-01
          0                17           2             4    6     1       0.3209745762E-03       4    6    1         0.1749665435E-01      0.1749948416E-01
          0                18           2             4    6     1       0.1872631751E-03       4    6    1         0.1020791052E-01      0.1020955971E-01
          0                19           1             4    6     1       0.1092531793E-03       4    6    1         0.5955504956E-02      0.5956466745E-02
          0                20           1             4    6     1       0.6374054340E-04       4    6    1         0.3474563756E-02      0.3475124862E-02

    ------------------------------------------------
       NWT REQUIRED           20 OUTER ITERATIONS 
       AND A TOTAL OF         38 INNER ITERATIONS.
    ------------------------------------------------

 NO OUTPUT CONTROL FOR STRESS PERIOD   32   TIME STEP   12
 
 SOLVING FOR HEAD 
                                                   Max.-Head-Change                         Max.-Flux-Residual
  Residual-Control   Outer-Iter.   Inner-Iter.     Column Row Layer    Maximum-Head-Change  Column Row Layer    Maximum-Flux-Residual          L2-NORM 
          0                 1           2             4    6     1       0.2007794042E+01       4    6    1         0.1095229488E+03      0.1096746632E+03
          0                 2           2             4    6     1       0.4455949127E+00       4    6    1         0.2444662291E+02      0.2661027727E+02
          0                 3           2             4    7     1      -0.4683314746E+00       5    8    1        -0.2579670975E+02      0.5956015149E+02
          0                 4           2             4    6     1      -0.8618862306E-01       4    6    1        -0.4884741865E+01      0.6410794135E+01
          0                 5           2             4    6     1      -0.2053443757E-01       4    6    1        -0.1145908460E+01      0.1167087253E+01
          0                 6           2             4    6     1      -0.4892061370E-02       4    6    1        -0.2739220430E+00      0.2740070539E+00
          0                 7           2             4    6     1      -0.1165431584E-02       4    6    1        -0.6522592793E-01      0.6522702554E-01
          0                 8           2             4    6     1      -0.2776312404E-03       4    6    1        -0.1553800427E-01      0.1553830181E-01
          0                 9           1             4    6     1      -0.6613583165E-04       4    6    1        -0.3701343061E-02      0.3701414789E-02

    ------------------------------------------------
       NWT REQUIRED            9 OUTER ITERATIONS 
       AND A TOTAL OF         17 INNER ITERATIONS.
    ------------------------------------------------

 NO OUTPUT CONTROL FOR STRESS PERIOD   32   TIME STEP   13
 
 SOLVING FOR HEAD 
                                                   Max.-Head-Change                         Max.-Flux-Residual
  Residual-Control   Outer-Iter.   Inner-Iter.     Column Row Layer    Maximum-Head-Change  Column Row Layer    Maximum-Flux-Residual          L2-NORM 
          0                 1           2             5    8     1       0.1205365081E+01       5    8    1         0.6638691040E+02      0.6649924307E+02
          0                 2           2             5    8     1       0.6173160743E+00       5    8    1         0.3418744797E+02      0.3535536957E+02
          0                 3           2             4    6     1      -0.1810211285E+01       4    6    1        -0.9582733738E+02      0.2274715006E+03
          0                 4           2             5    8     1      -0.8207982963E+00       5    8    1        -0.4677311295E+02      0.4959748522E+02
          0                 5           2             5    8     1      -0.4815979560E+00       5    8    1        -0.2731207774E+02      0.2732636080E+02
          0                 6           2             5    8     1      -0.2821504067E+00       5    8    1        -0.1601488098E+02      0.1601495467E+02
          0                 7           2             5    8     1      -0.1654273394E+00       5    8    1        -0.9389437452E+01      0.9389458634E+01
          0                 8           2             5    8     1      -0.9699159099E-01       5    8    1        -0.5504992520E+01      0.5505005044E+01
          0                 9           2             5    8     1      -0.5686693400E-01       5    8    1        -0.3227566347E+01      0.3227573703E+01
          0                10           2             5    8     1      -0.3334139245E-01       5    8    1        -0.1892313754E+01      0.1892318071E+01
                                                   Max.-Head-Change                         Max.-Flux-Residual
  Residual-Control   Outer-Iter.   Inner-Iter.     Column Row Layer    Maximum-Head-Change  Column Row Layer    Maximum-Flux-Residual          L2-NORM 
          0                11           2             5    8     1      -0.1954813847E-01       5    8    1        -0.1109454895E+01      0.1109457428E+01
          0                12           2             5    8     1      -0.1146105451E-01       5    8    1        -0.6504652691E+00      0.6504667544E+00
          0                13           2             5    8     1      -0.6719564049E-02       5    8    1        -0.3813609253E+00      0.3813617963E+00
          0                14           1             5    8     1      -0.3939624940E-02       5    8    1        -0.2235865584E+00      0.2235870691E+00
          0                15           1             5    8     1      -0.2323622906E-02       5    8    1        -0.1315400390E+00      0.1315404865E+00
          0                16           1             5    8     1      -0.1366222026E-02       5    8    1        -0.7733782291E-01      0.7733798100E-01
          0                17           1             5    8     1      -0.8032931741E-03       5    8    1        -0.4547168564E-01      0.4547177473E-01
          0                18           1             5    8     1      -0.4723066163E-03       5    8    1        -0.2673541534E-01      0.2673546776E-01
          0                19           1             5    8     1      -0.2776969688E-03       5    8    1        -0.1571918353E-01      0.1571921436E-01
          0                20           1             5    8     1      -0.1632733882E-03       5    8    1        -0.9242089955E-02      0.9242108097E-02
          0                21           1             5    8     1      -0.9599681611E-04       5    8    1        -0.5433848875E-02      0.5433859894E-02

    ------------------------------------------------
       NWT REQUIRED           21 OUTER ITERATIONS 
       AND A TOTAL OF         34 INNER ITERATIONS.
    ------------------------------------------------

 NO OUTPUT CONTROL FOR STRESS PERIOD   32   TIME STEP   14
 
 SOLVING FOR HEAD 
                                                   Max.-Head-Change                         Max.-Flux-Residual
  Residual-Control   Outer-Iter.   Inner-Iter.     Column Row Layer    Maximum-Head-Change  Column Row Layer    Maximum-Flux-Residual          L2-NORM 
          0                 1           2             5    8     1       0.1580343876E+01       5    8    1         0.8697665445E+02      0.8749381716E+02
          0                 2           2             5    8     1       0.2130189565E+00       5    8    1         0.1187668288E+02      0.1803945937E+02
          0                 3           2             5    8     1       0.1180900349E+00       5    8    1         0.6403995502E+01      0.1127975644E+02
          0                 4           2             4    7     1      -0.1168950955E+00       5    6    1        -0.6658379158E+01      0.1495114310E+02
          0                 5           2             4    8     1      -0.4951132902E-01       4    8    1        -0.2905920162E+01      0.3161142132E+01
          0                 6           2             4    8     1      -0.3071363574E-01       4    8    1        -0.1808775123E+01      0.1833346160E+01
          0                 7           2             4    8     1      -0.1901711621E-01       4    8    1        -0.1121525945E+01      0.1124147703E+01
          0                 8           2             4    8     1      -0.1176656288E-01       4    8    1        -0.6942961158E+00      0.6946487425E+00
          0                 9           2             4    8     1      -0.7278407457E-02       4    8    1        -0.4295523101E+00      0.4296225647E+00
          0                10           2             4    8     1      -0.4501702241E-02       4    8    1        -0.2656964650E+00      0.2657185246E+00
                                                   Max.-Head-Change                         Max.-Flux-Residual
  Residual-Control   Outer-Iter.   Inner-Iter.     Column Row Layer    Maximum-Head-Change  Column Row Layer    Maximum-Flux-Residual          L2-NORM 
          0                11           2             4    8     1      -0.2784184412E-02       4    8    1        -0.1643294577E+00      0.1643392642E+00
          0                12           2             4    8     1      -0.1721909556E-02       4    8    1        -0.1016314850E+00      0.1016367556E+00
          0                13           2             4    8     1      -0.1064921678E-02       4    8    1        -0.6285402968E-01      0.6285711262E-01
          0                14           2             4    8     1      -0.6585995984E-03       4    8    1        -0.3887168034E-01      0.3887354645E-01
          0                15           2             4    8     1      -0.4073073742E-03       4    8    1        -0.2403975818E-01      0.2404090298E-01
          0                16           2             4    8     1      -0.2518954432E-03       4    8    1        -0.1486702054E-01      0.1486772633E-01
          0                17           2             4    8     1      -0.1557814193E-03       4    8    1        -0.9194223034E-02      0.9194658993E-02
          0                18           1             4    8     1      -0.9634037636E-04       4    8    1        -0.5685955308E-02      0.5686224787E-02

    ------------------------------------------------
       NWT REQUIRED           18 OUTER ITERATIONS 
       AND A TOTAL OF         35 INNER ITERATIONS.
    ------------------------------------------------

 NO OUTPUT CONTROL FOR STRESS PERIOD   32   TIME STEP   15
 
 SOLVING FOR HEAD 
                                                   Max.-Head-Change                         Max.-Flux-Residual
  Residual-Control   Outer-Iter.   Inner-Iter.     Column Row Layer    Maximum-Head-Change  Column Row Layer    Maximum-Flux-Residual          L2-NORM 
          0                 1           2             5    7     1       0.1532048455E+01       5    7    1         0.8310708045E+02      0.1338743046E+03
          0                 2           2             5    6     1       0.5245976903E+00       5    6    1         0.2877458727E+02      0.4033391174E+02
          0                 3           2             5    6     1       0.2609144333E+00       5    6    1         0.1427317205E+02      0.2113346652E+02
          0                 4           2             4    7     1       0.1236032564E+00       4    7    1         0.6749175336E+01      0.7165983288E+01
          0                 5           2             4    7     1       0.7191679000E-01       4    7    1         0.3920103353E+01      0.3945507211E+01
          0                 6           2             4    7     1       0.4196066083E-01       4    7    1         0.2286998837E+01      0.2289599878E+01
          0                 7           2             4    7     1       0.2448439150E-01       4    7    1         0.1334403668E+01      0.1334848671E+01
          0                 8           2             4    7     1       0.1428732611E-01       4    7    1         0.7786416173E+00      0.7788109446E+00
          0                 9           2             4    7     1       0.8337176856E-02       4    7    1         0.4543605907E+00      0.4544540437E+00
          0                10           2             4    7     1       0.4865079889E-02       4    7    1         0.2651363875E+00      0.2651914474E+00
                                                   Max.-Head-Change                         Max.-Flux-Residual
  Residual-Control   Outer-Iter.   Inner-Iter.     Column Row Layer    Maximum-Head-Change  Column Row Layer    Maximum-Flux-Residual          L2-NORM 
          0                11           1             4    7     1       0.2838979679E-02       4    7    1         0.1547179105E+00      0.1547504071E+00
          0                12           1             4    7     1       0.1656667000E-02       4    7    1         0.9028446850E-01      0.9030356027E-01
          0                13           1             4    7     1       0.9667372596E-03       4    7    1         0.5268488778E-01      0.5269606846E-01
          0                14           1             4    7     1       0.5641334290E-03       4    7    1         0.3074392676E-01      0.3075046291E-01
          0                15           1             4    7     1       0.3291965550E-03       4    7    1         0.1794042551E-01      0.1794424299E-01
          0                16           1             4    7     1       0.1921006170E-03       4    7    1         0.1046902413E-01      0.1047125272E-01
          0                17           1             4    7     1       0.1120991330E-03       4    7    1         0.6109134538E-02      0.6110435267E-02
          0                18           1             4    7     1       0.6541475997E-04       4    7    1         0.3564947921E-02      0.3565707025E-02

    ------------------------------------------------
       NWT REQUIRED           18 OUTER ITERATIONS 
       AND A TOTAL OF         28 INNER ITERATIONS.
    ------------------------------------------------

 NO OUTPUT CONTROL FOR STRESS PERIOD   32   TIME STEP   16
 
 SOLVING FOR HEAD 
                                                   Max.-Head-Change                         Max.-Flux-Residual
  Residual-Control   Outer-Iter.   Inner-Iter.     Column Row Layer    Maximum-Head-Change  Column Row Layer    Maximum-Flux-Residual          L2-NORM 
          0                 1           2             4    6     1       0.1595991451E+01       4    6    1         0.8688686143E+02      0.8774186639E+02
          0                 2           2             4    6     1       0.3108267608E+00       4    6    1         0.1706076471E+02      0.1955400475E+02
          0                 3           2             4    7     1      -0.4702474170E+00       5    8    1        -0.2580356762E+02      0.6040672582E+02
          0                 4           2             4    7     1      -0.1135327807E+00       4    7    1        -0.6343064474E+01      0.8894941281E+01
          0                 5           2             4    7     1      -0.2741263059E-01       4    7    1        -0.1516294319E+01      0.1984096638E+01
          0                 6           2             4    7     1      -0.6619363296E-02       4    7    1        -0.3666366866E+00      0.4800021100E+00
          0                 7           2             4    7     1      -0.1598525378E-02       4    7    1        -0.8852414132E-01      0.1162757250E+00
          0                 8           2             4    7     1      -0.3860646748E-03       4    7    1        -0.2137771335E-01      0.2816822646E-01
          0                 9           1             4    7     1      -0.9324736433E-04       4    7    1        -0.5162927112E-02      0.6823820841E-02

    ------------------------------------------------
       NWT REQUIRED            9 OUTER ITERATIONS 
       AND A TOTAL OF         17 INNER ITERATIONS.
    ------------------------------------------------

 NO OUTPUT CONTROL FOR STRESS PERIOD   32   TIME STEP   17
 
 SOLVING FOR HEAD 
                                                   Max.-Head-Change                         Max.-Flux-Residual
  Residual-Control   Outer-Iter.   Inner-Iter.     Column Row Layer    Maximum-Head-Change  Column Row Layer    Maximum-Flux-Residual          L2-NORM 
          0                 1           2             5    8     1       0.1131696082E+01       5    8    1         0.6247745511E+02      0.6263550209E+02
          0                 2           2             5    8     1       0.5776657878E+00       5    8    1         0.3200136283E+02      0.3318159197E+02
          0                 3           2             4    6     1      -0.1813130358E+01       4    7    1        -0.9692413209E+02      0.2284293782E+03
          0                 4           2             5    8     1      -0.8337252045E+00       5    8    1        -0.4750432699E+02      0.5028246211E+02
          0                 5           2             5    8     1      -0.4891983570E+00       5    8    1        -0.2774215724E+02      0.2775626327E+02
          0                 6           2             5    8     1      -0.2866323674E+00       5    8    1        -0.1626862537E+02      0.1626870197E+02
          0                 7           2             5    8     1      -0.1680608439E+00       5    8    1        -0.9538515100E+01      0.9538539156E+01
          0                 8           2             5    8     1      -0.9853898672E-01       5    8    1        -0.5592585280E+01      0.5592599484E+01
          0                 9           2             5    8     1      -0.3211421735E-01       5    8    1        -0.1822519580E+01      0.1822534586E+01
          0                10           1             5    8     1       0.2188697631E-02       5    8    1         0.1277649135E+00      0.1277865920E+00
          0                11           1             5    8     1      -0.8721440801E-04       5    8    1        -0.5234748914E-02      0.5236863501E-02

    ------------------------------------------------
       NWT REQUIRED           11 OUTER ITERATIONS 
       AND A TOTAL OF         20 INNER ITERATIONS.
    ------------------------------------------------

 NO OUTPUT CONTROL FOR STRESS PERIOD   32   TIME STEP   18
 
 SOLVING FOR HEAD 
                                                   Max.-Head-Change                         Max.-Flux-Residual
  Residual-Control   Outer-Iter.   Inner-Iter.     Column Row Layer    Maximum-Head-Change  Column Row Layer    Maximum-Flux-Residual          L2-NORM 
          0                 1           2             5    8     1       0.1618973928E+01       5    8    1         0.8936802420E+02      0.8974326047E+02
          0                 2           2             5    8     1       0.2235767339E+00       5    8    1         0.1253782411E+02      0.1969213823E+02
          0                 3           2             5    8     1       0.1205987366E+00       5    8    1         0.6522325713E+01      0.1178462855E+02
          0                 4           2             4    7     1      -0.1174042125E+00       5    6    1        -0.6658568588E+01      0.1571932519E+02
          0                 5           2             5    8     1      -0.2170763595E-01       5    8    1        -0.1233970472E+01      0.1247719029E+01
          0                 6           1             5    8     1      -0.5081979957E-02       5    8    1        -0.2883053983E+00      0.2883145944E+00
          0                 7           1             5    8     1      -0.1189702361E-02       5    8    1        -0.6747990536E-01      0.6748364164E-01
          0                 8           1             5    8     1      -0.2785031069E-03       5    8    1        -0.1579604635E-01      0.1579718033E-01
          0                 9           1             5    8     1      -0.6519411588E-04       5    8    1        -0.3697602435E-02      0.3697879592E-02

    ------------------------------------------------
       NWT REQUIRED            9 OUTER ITERATIONS 
       AND A TOTAL OF         14 INNER ITERATIONS.
    ------------------------------------------------

 NO OUTPUT CONTROL FOR STRESS PERIOD   32   TIME STEP   19
 
 SOLVING FOR HEAD 
                                                   Max.-Head-Change                         Max.-Flux-Residual
  Residual-Control   Outer-Iter.   Inner-Iter.     Column Row Layer    Maximum-Head-Change  Column Row Layer    Maximum-Flux-Residual          L2-NORM 
          0                 1           2             4    8     1       0.1544687292E+01       4    8    1         0.8344640172E+02      0.1317640216E+03
          0                 2           2             5    6     1       0.4537485903E+00       5    6    1         0.2485731291E+02      0.3724196689E+02
          0                 3           2             5    6     1       0.2987708449E+00       5    6    1         0.1636028151E+02      0.2208713538E+02
          0                 4           2             5    6     1       0.1482559433E+00       5    6    1         0.8198437916E+01      0.1040545386E+02
          0                 5           2             4    7     1       0.6642301676E-01       4    7    1         0.3612642225E+01      0.4947384527E+01
          0                 6           2             4    7     1       0.3884528466E-01       4    7    1         0.2113028285E+01      0.2233109161E+01
          0                 7           2             4    7     1       0.2271475874E-01       4    7    1         0.1235737249E+01      0.1245606564E+01
          0                 8           2             4    7     1       0.1328146577E-01       4    7    1         0.7225891821E+00      0.7234992897E+00
          0                 9           2             4    7     1       0.7765468654E-02       4    7    1         0.4224992796E+00      0.4226425824E+00
          0                10           2             4    7     1       0.4540272909E-02       4    7    1         0.2470277969E+00      0.2470793695E+00
                                                   Max.-Head-Change                         Max.-Flux-Residual
  Residual-Control   Outer-Iter.   Inner-Iter.     Column Row Layer    Maximum-Head-Change  Column Row Layer    Maximum-Flux-Residual          L2-NORM 
          0                11           1             4    7     1       0.2654563474E-02       4    7    1         0.1444306144E+00      0.1444578696E+00
          0                12           1             4    7     1       0.1552040352E-02       4    7    1         0.8444424225E-01      0.8445987778E-01
          0                13           1             4    7     1       0.9074285107E-03       4    7    1         0.4937189369E-01      0.4938099986E-01
          0                14           1             4    7     1       0.5305443065E-03       4    7    1         0.2886616831E-01      0.2887148828E-01
          0                15           1             4    7     1       0.3101921760E-03       4    7    1         0.1687712081E-01      0.1688023099E-01
          0                16           1             4    7     1       0.1813593722E-03       4    7    1         0.9867509115E-02      0.9869327634E-02
          0                17           1             4    7     1       0.1060349814E-03       4    7    1         0.5769214707E-02      0.5770278014E-02
          0                18           1             4    7     1       0.6199523703E-04       4    7    1         0.3373073978E-02      0.3373695695E-02

    ------------------------------------------------
       NWT REQUIRED           18 OUTER ITERATIONS 
       AND A TOTAL OF         28 INNER ITERATIONS.
    ------------------------------------------------

 NO OUTPUT CONTROL FOR STRESS PERIOD   32   TIME STEP   20
 
 SOLVING FOR HEAD 
                                                   Max.-Head-Change                         Max.-Flux-Residual
  Residual-Control   Outer-Iter.   Inner-Iter.     Column Row Layer    Maximum-Head-Change  Column Row Layer    Maximum-Flux-Residual          L2-NORM 
          0                 1           2             4    6     1       0.1449989056E+01       4    6    1         0.7870614598E+02      0.8321510136E+02
          0                 2           2             4    6     1       0.4422436415E+00       4    6    1         0.2417872492E+02      0.2587028178E+02
          0                 3           2             5    8     1      -0.4684813652E+00       5    8    1        -0.2580553292E+02      0.5969021434E+02
          0                 4           2             4    7     1      -0.1099833769E+00       4    7    1        -0.6149376096E+01      0.8550661619E+01
          0                 5           2             4    7     1      -0.2654065204E-01       4    7    1        -0.1468669024E+01      0.1890805877E+01
          0                 6           2             4    7     1      -0.6405111445E-02       4    7    1        -0.3549391016E+00      0.4569039903E+00
          0                 7           2             4    7     1      -0.1545872233E-02       4    7    1        -0.8564988559E-01      0.1105721308E+00
          0                 8           2             4    7     1      -0.3731228383E-03       4    7    1        -0.2067133667E-01      0.2676031761E-01
          0                 9           1             4    7     1      -0.9006587895E-04       4    7    1        -0.4989301106E-02      0.6476383995E-02

    ------------------------------------------------
       NWT REQUIRED            9 OUTER ITERATIONS 
       AND A TOTAL OF         17 INNER ITERATIONS.
    ------------------------------------------------

 NO OUTPUT CONTROL FOR STRESS PERIOD   32   TIME STEP   21
 
 SOLVING FOR HEAD 
                                                   Max.-Head-Change                         Max.-Flux-Residual
  Residual-Control   Outer-Iter.   Inner-Iter.     Column Row Layer    Maximum-Head-Change  Column Row Layer    Maximum-Flux-Residual          L2-NORM 
          0                 1           2             5    8     1       0.1059518865E+01       5    8    1         0.5847893723E+02      0.5868253662E+02
          0                 2           2             5    8     1       0.5362415322E+00       5    8    1         0.2971574972E+02      0.3098423924E+02
          0                 3           2             4    7     1      -0.1805038743E+01       4    7    1        -0.9691931356E+02      0.2290055900E+03
          0                 4           2             5    8     1      -0.8478217518E+00       5    8    1        -0.4830370341E+02      0.5057076400E+02
          0                 5           2             5    8     1      -0.4974868849E+00       5    8    1        -0.2821146452E+02      0.2821851036E+02
          0                 6           2             5    8     1      -0.2914988508E+00       5    8    1        -0.1654433395E+02      0.1654438747E+02
          0                 7           2             5    8     1      -0.1443698345E+00       5    8    1        -0.8193552267E+01      0.8193581173E+01
          0                 8           1             5    8     1       0.9835947989E-02       5    8    1         0.5741783082E+00      0.5742791615E+00
          0                 9           1             5    8     1      -0.3917562169E-03       5    8    1        -0.2351384647E-01      0.2352334832E-01
          0                10           1             5    8     1       0.4844863272E-05       5    8    1         0.2989108730E-03      0.2990673277E-03

    ------------------------------------------------
       NWT REQUIRED           10 OUTER ITERATIONS 
       AND A TOTAL OF         17 INNER ITERATIONS.
    ------------------------------------------------

 NO OUTPUT CONTROL FOR STRESS PERIOD   32   TIME STEP   22
 
 SOLVING FOR HEAD 
                                                   Max.-Head-Change                         Max.-Flux-Residual
  Residual-Control   Outer-Iter.   Inner-Iter.     Column Row Layer    Maximum-Head-Change  Column Row Layer    Maximum-Flux-Residual          L2-NORM 
          0                 1           2             5    8     1       0.1617175852E+01       5    8    1         0.8925602499E+02      0.8971143536E+02
          0                 2           2             5    8     1       0.2232950032E+00       5    8    1         0.1252323849E+02      0.1974774850E+02
          0                 3           2             5    8     1       0.1205392802E+00       5    8    1         0.6518956287E+01      0.1178761923E+02
          0                 4           2             4    7     1      -0.1174049352E+00       5    6    1        -0.6658712655E+01      0.1571977742E+02
          0                 5           2             5    8     1      -0.2171062043E-01       5    8    1        -0.1234126895E+01      0.1247874131E+01
          0                 6           1             5    8     1      -0.5082742601E-02       5    8    1        -0.2883458838E+00      0.2883550786E+00
          0                 7           1             5    8     1      -0.1189895868E-02       5    8    1        -0.6749023718E-01      0.6749397301E-01
          0                 8           1             5    8     1      -0.2785519109E-03       5    8    1        -0.1579866393E-01      0.1579979773E-01
          0                 9           1             5    8     1      -0.6520636038E-04       5    8    1        -0.3698261703E-02      0.3698541399E-02

    ------------------------------------------------
       NWT REQUIRED            9 OUTER ITERATIONS 
       AND A TOTAL OF         14 INNER ITERATIONS.
    ------------------------------------------------

 NO OUTPUT CONTROL FOR STRESS PERIOD   32   TIME STEP   23
 
 SOLVING FOR HEAD 
                                                   Max.-Head-Change                         Max.-Flux-Residual
  Residual-Control   Outer-Iter.   Inner-Iter.     Column Row Layer    Maximum-Head-Change  Column Row Layer    Maximum-Flux-Residual          L2-NORM 
          0                 1           2             4    8     1       0.1555715532E+01       4    8    1         0.8414754029E+02      0.1245972758E+03
          0                 2           2             5    6     1       0.3912285601E+00       5    6    1         0.2132604194E+02      0.3585844017E+02
          0                 3           2             5    6     1       0.2632610666E+00       5    6    1         0.1438463303E+02      0.1964240318E+02
          0                 4           2             5    6     1       0.1279168950E+00       5    6    1         0.7073280918E+01      0.8712178884E+01
          0                 5           2             5    6     1       0.7364325378E-01       5    6    1         0.4059593682E+01      0.4942490688E+01
          0                 6           2             5    6     1       0.4239696767E-01       5    6    1         0.2337258328E+01      0.2858227643E+01
          0                 7           2             5    6     1       0.2440840454E-01       5    6    1         0.1345581610E+01      0.1654281453E+01
          0                 8           2             5    6     1       0.1405232931E-01       5    6    1         0.7746682010E+00      0.9577460386E+00
          0                 9           2             5    6     1       0.8090246812E-02       5    6    1         0.4459904386E+00      0.5545787754E+00
          0                10           2             5    6     1       0.4657787536E-02       5    6    1         0.2567672939E+00      0.3211699415E+00
                                                   Max.-Head-Change                         Max.-Flux-Residual
  Residual-Control   Outer-Iter.   Inner-Iter.     Column Row Layer    Maximum-Head-Change  Column Row Layer    Maximum-Flux-Residual          L2-NORM 
          0                11           2             5    6     1       0.2681649155E-02       5    6    1         0.1478285042E+00      0.1860211443E+00
          0                12           2             5    6     1       0.1543933536E-02       5    6    1         0.8511007310E-01      0.1077568609E+00
          0                13           2             5    6     1       0.8889137496E-03       5    6    1         0.4900135194E-01      0.6242848108E-01
          0                14           2             5    6     1       0.5117938586E-03       5    6    1         0.2821236670E-01      0.3617228881E-01
          0                15           2             5    6     1       0.2946693704E-03       5    6    1         0.1624334214E-01      0.2096161754E-01
          0                16           2             5    6     1       0.1696599992E-03       5    6    1         0.9352242091E-02      0.1214868771E-01
          0                17           1             5    6     1       0.9768515250E-04       5    6    1         0.5384689067E-02      0.7041900557E-02

    ------------------------------------------------
       NWT REQUIRED           17 OUTER ITERATIONS 
       AND A TOTAL OF         33 INNER ITERATIONS.
    ------------------------------------------------

 NO OUTPUT CONTROL FOR STRESS PERIOD   32   TIME STEP   24
 
 SOLVING FOR HEAD 
                                                   Max.-Head-Change                         Max.-Flux-Residual
  Residual-Control   Outer-Iter.   Inner-Iter.     Column Row Layer    Maximum-Head-Change  Column Row Layer    Maximum-Flux-Residual          L2-NORM 
          0                 1           2             4    6     1       0.1317469294E+01       4    6    1         0.7116569699E+02      0.8253070058E+02
          0                 2           2             4    6     1       0.5618132378E+00       4    6    1         0.3062978142E+02      0.3200957325E+02
          0                 3           2             5    7     1      -0.4686300049E+00       5    8    1        -0.2580524484E+02      0.5915533822E+02
          0                 4           2             5    6     1      -0.1095125461E+00       5    6    1        -0.6162313118E+01      0.1013867873E+02
          0                 5           2             4    7     1      -0.2580245681E-01       4    7    1        -0.1427663693E+01      0.1907729502E+01
          0                 6           2             4    7     1      -0.6226746993E-02       4    7    1        -0.3450651325E+00      0.4452130407E+00
          0                 7           2             4    7     1      -0.1502821237E-02       4    7    1        -0.8326425208E-01      0.1073500006E+00
          0                 8           2             4    7     1      -0.3627426244E-03       4    7    1        -0.2009569004E-01      0.2600314597E-01
          0                 9           1             4    7     1      -0.8756561780E-04       4    7    1        -0.4850541174E-02      0.6298667406E-02

    ------------------------------------------------
       NWT REQUIRED            9 OUTER ITERATIONS 
       AND A TOTAL OF         17 INNER ITERATIONS.
    ------------------------------------------------

 NO OUTPUT CONTROL FOR STRESS PERIOD   32   TIME STEP   25
 
 SOLVING FOR HEAD 
                                                   Max.-Head-Change                         Max.-Flux-Residual
  Residual-Control   Outer-Iter.   Inner-Iter.     Column Row Layer    Maximum-Head-Change  Column Row Layer    Maximum-Flux-Residual          L2-NORM 
          0                 1           2             5    8     1       0.9871216069E+00       5    8    1         0.5447232349E+02      0.5475905830E+02
          0                 2           2             5    8     1       0.4946737726E+00       5    8    1         0.2742181551E+02      0.2877611547E+02
          0                 3           2             4    7     1      -0.1805043080E+01       4    7    1        -0.9691697314E+02      0.2295882692E+03
          0                 4           2             5    8     1      -0.8614923236E+00       5    8    1        -0.4907764612E+02      0.5131107319E+02
          0                 5           2             5    8     1      -0.5055275788E+00       5    8    1        -0.2866665176E+02      0.2867359380E+02
          0                 6           2             5    8     1      -0.2864488829E+00       5    8    1        -0.1625715297E+02      0.1625721132E+02
          0                 7           2             5    8     1       0.1951163228E-01       5    8    1         0.1138989607E+01      0.1139189473E+01
          0                 8           1             5    8     1      -0.7769518240E-03       5    8    1        -0.4663346906E-01      0.4665234407E-01
          0                 9           1             5    8     1       0.9601468249E-05       5    8    1         0.5923696090E-03      0.5926751740E-03

    ------------------------------------------------
       NWT REQUIRED            9 OUTER ITERATIONS 
       AND A TOTAL OF         16 INNER ITERATIONS.
    ------------------------------------------------

 NO OUTPUT CONTROL FOR STRESS PERIOD   32   TIME STEP   26
 
 SOLVING FOR HEAD 
                                                   Max.-Head-Change                         Max.-Flux-Residual
  Residual-Control   Outer-Iter.   Inner-Iter.     Column Row Layer    Maximum-Head-Change  Column Row Layer    Maximum-Flux-Residual          L2-NORM 
          0                 1           2             5    8     1       0.1616945129E+01       5    8    1         0.8923407993E+02      0.8978891456E+02
          0                 2           2             5    8     1       0.2233338236E+00       5    8    1         0.1252595705E+02      0.1981297248E+02
          0                 3           2             5    8     1       0.1205482352E+00       5    8    1         0.6519375308E+01      0.1179255432E+02
          0                 4           2             4    7     1      -0.1174055314E+00       5    6    1        -0.6658957630E+01      0.1571996132E+02
          0                 5           2             5    8     1      -0.2171037652E-01       5    8    1        -0.1234097826E+01      0.1247845892E+01
          0                 6           1             5    8     1      -0.5082761754E-02       5    8    1        -0.2883436553E+00      0.2883528493E+00
          0                 7           1             5    8     1      -0.1189918204E-02       5    8    1        -0.6749073408E-01      0.6749446838E-01
          0                 8           1             5    8     1      -0.2785613190E-03       5    8    1        -0.1579901754E-01      0.1580015094E-01
          0                 9           1             5    8     1      -0.6520954154E-04       5    8    1        -0.3698399991E-02      0.3698677037E-02

    ------------------------------------------------
       NWT REQUIRED            9 OUTER ITERATIONS 
       AND A TOTAL OF         14 INNER ITERATIONS.
    ------------------------------------------------

 NO OUTPUT CONTROL FOR STRESS PERIOD   32   TIME STEP   27
 
 SOLVING FOR HEAD 
                                                   Max.-Head-Change                         Max.-Flux-Residual
  Residual-Control   Outer-Iter.   Inner-Iter.     Column Row Layer    Maximum-Head-Change  Column Row Layer    Maximum-Flux-Residual          L2-NORM 
          0                 1           2             4    8     1       0.1564681263E+01       4    8    1         0.8472802702E+02      0.1199338856E+03
          0                 2           2             5    7     1       0.4654998038E+00       5    7    1         0.2525810280E+02      0.3766564523E+02
          0                 3           2             5    6     1       0.2612561108E+00       5    6    1         0.1425829218E+02      0.1888614270E+02
          0                 4           2             5    6     1       0.1268470525E+00       5    6    1         0.7011269595E+01      0.8027549941E+01
          0                 5           2             5    6     1       0.7304097498E-01       5    6    1         0.4025968038E+01      0.4531204749E+01
          0                 6           2             5    6     1       0.4205065044E-01       5    6    1         0.2318207092E+01      0.2615279311E+01
          0                 7           2             5    6     1       0.2420765619E-01       5    6    1         0.1334599207E+01      0.1510768507E+01
          0                 8           2             5    6     1       0.1393560500E-01       5    6    1         0.7682960203E+00      0.8729574769E+00
          0                 9           2             5    6     1       0.8022295647E-02       5    6    1         0.4422840257E+00      0.5044837649E+00
          0                10           2             5    6     1       0.4618208759E-02       5    6    1         0.2546092944E+00      0.2915741652E+00
                                                   Max.-Head-Change                         Max.-Flux-Residual
  Residual-Control   Outer-Iter.   Inner-Iter.     Column Row Layer    Maximum-Head-Change  Column Row Layer    Maximum-Flux-Residual          L2-NORM 
          0                11           2             5    6     1       0.2658589732E-02       5    6    1         0.1465714787E+00      0.1685376294E+00
          0                12           2             5    6     1       0.1530496159E-02       5    6    1         0.8437767939E-01      0.9742959305E-01
          0                13           2             5    6     1       0.8810822475E-03       5    6    1         0.4857455587E-01      0.5632894233E-01
          0                14           2             5    6     1       0.5072289328E-03       5    6    1         0.2796361912E-01      0.3257013807E-01
          0                15           2             5    6     1       0.2920081708E-03       5    6    1         0.1609834659E-01      0.1883456071E-01
          0                16           2             5    6     1       0.1681084177E-03       5    6    1         0.9267713185E-02      0.1089280862E-01
          0                17           1             5    6     1       0.9678041131E-04       5    6    1         0.5335404733E-02      0.6300475267E-02

    ------------------------------------------------
       NWT REQUIRED           17 OUTER ITERATIONS 
       AND A TOTAL OF         33 INNER ITERATIONS.
    ------------------------------------------------

 NO OUTPUT CONTROL FOR STRESS PERIOD   32   TIME STEP   28
 
 SOLVING FOR HEAD 
                                                   Max.-Head-Change                         Max.-Flux-Residual
  Residual-Control   Outer-Iter.   Inner-Iter.     Column Row Layer    Maximum-Head-Change  Column Row Layer    Maximum-Flux-Residual          L2-NORM 
          0                 1           2             4    6     1       0.1193439379E+01       4    6    1         0.6406763788E+02      0.8574248067E+02
          0                 2           2             4    6     1       0.6063142321E+00       4    6    1         0.3298286408E+02      0.3457654564E+02
          0                 3           2             5    7     1      -0.4698377780E+00       5    8    1        -0.2580323212E+02      0.5761864608E+02
          0                 4           2             5    6     1      -0.1067030814E+00       5    6    1        -0.6020812147E+01      0.9548457818E+01
          0                 5           2             5    6     1      -0.2532599087E-01       5    6    1        -0.1420287073E+01      0.2181077684E+01
          0                 6           2             5    6     1      -0.6015572011E-02       5    6    1        -0.3374135191E+00      0.5259420795E+00
          0                 7           2             4    7     1      -0.1449757067E-02       4    7    1        -0.8040132899E-01      0.1270048784E+00
          0                 8           2             4    7     1      -0.3495741406E-03       4    7    1        -0.1937937019E-01      0.3069396336E-01
          0                 9           1             4    7     1      -0.8432925340E-04       4    7    1        -0.4673208821E-02      0.7423143788E-02

    ------------------------------------------------
       NWT REQUIRED            9 OUTER ITERATIONS 
       AND A TOTAL OF         17 INNER ITERATIONS.
    ------------------------------------------------

 NO OUTPUT CONTROL FOR STRESS PERIOD   32   TIME STEP   29
 
 SOLVING FOR HEAD 
                                                   Max.-Head-Change                         Max.-Flux-Residual
  Residual-Control   Outer-Iter.   Inner-Iter.     Column Row Layer    Maximum-Head-Change  Column Row Layer    Maximum-Flux-Residual          L2-NORM 
          0                 1           2             5    8     1       0.9155637604E+00       5    8    1         0.5051086850E+02      0.5089384813E+02
          0                 2           2             5    8     1       0.4535773385E+00       5    8    1         0.2515389502E+02      0.2650321957E+02
          0                 3           2             4    7     1      -0.1805064398E+01       4    7    1        -0.9691482684E+02      0.2304814025E+03
          0                 4           2             5    8     1      -0.8750159444E+00       5    8    1        -0.4984306862E+02      0.5200058385E+02
          0                 5           2             5    8     1      -0.5134832608E+00       5    8    1        -0.2911695927E+02      0.2912367096E+02
          0                 6           2             5    8     1      -0.1179110294E+00       5    8    1        -0.6690989168E+01      0.6691144481E+01
          0                 7           1             5    8     1       0.8032263043E-02       5    8    1         0.4688588519E+00      0.4689331915E+00
          0                 8           1             5    8     1      -0.3198409062E-03       5    8    1        -0.1919678165E-01      0.1920455471E-01
          0                 9           1             5    8     1       0.3952557125E-05       5    8    1         0.2438513245E-03      0.2439779005E-03

    ------------------------------------------------
       NWT REQUIRED            9 OUTER ITERATIONS 
       AND A TOTAL OF         15 INNER ITERATIONS.
    ------------------------------------------------

 NO OUTPUT CONTROL FOR STRESS PERIOD   32   TIME STEP   30



 STREAM LISTING     PERIOD     32   STEP       30

 LAYER ROW COL. STREAM  RCH.  FLOW INTO     FLOW TO   FLOW OUT OF   OVRLND.     DIRECT     STREAM       STREAM     STREAM     STREAM   STREAMBED  STREAMBED
                SEG.NO.  NO.  STRM. RCH.    AQUIFER    STRM. RCH.    RUNOFF     PRECIP       ET          HEAD       DEPTH      WIDTH   CONDCTNC.   GRADIENT

   1    1    1     1     1    2.8124E+01  2.5914E-01   2.7865E+01  0.000E+00  0.000E+00  0.000E+00  1.09427E+03  1.223E+00  1.364E+01  6.136E-02  1.408E+00
   1    2    2     1     2    2.7865E+01  4.0087E-01   2.7464E+01  0.000E+00  0.000E+00  0.000E+00  1.08928E+03  1.218E+00  1.358E+01  9.503E-02  1.406E+00
   1    3    3     1     3    2.7464E+01  3.4142E-01   2.7123E+01  0.000E+00  0.000E+00  0.000E+00  1.08363E+03  1.213E+00  1.351E+01  8.103E-02  1.404E+00
   1    3    4     1     4    2.7123E+01  3.1402E-01   2.6809E+01  0.000E+00  0.000E+00  0.000E+00  1.07862E+03  1.209E+00  1.344E+01  7.461E-02  1.403E+00
   1    4    5     2     1    2.4809E+01  3.2738E-01   2.4481E+01  0.000E+00  0.000E+00  0.000E+00  1.07313E+03  1.197E+00  1.200E+01  7.800E-02  1.399E+00
   1    5    6     2     2    2.4481E+01  2.5133E-01   2.4230E+01  0.000E+00  0.000E+00  0.000E+00  1.06770E+03  1.189E+00  1.200E+01  6.000E-02  1.396E+00
   1    6    6     2     3    2.4230E+01  2.5089E-01   2.3979E+01  0.000E+00  0.000E+00  0.000E+00  1.06297E+03  1.181E+00  1.200E+01  6.000E-02  1.394E+00
   1    7    6     2     4    2.3979E+01  2.5044E-01   2.3729E+01  0.000E+00  0.000E+00  0.000E+00  1.05825E+03  1.174E+00  1.200E+01  6.000E-02  1.391E+00
   1    8    6     2     5    2.3729E+01  2.5000E-01   2.3479E+01  0.000E+00  0.000E+00  0.000E+00  1.05353E+03  1.167E+00  1.200E+01  6.000E-02  1.389E+00
   1    3    5     3     1    2.0000E+00  2.8252E-01   1.7175E+00  0.000E+00  0.000E+00  0.000E+00  1.07555E+03  1.909E+00  9.636E+00  7.227E-02  1.955E+00
   1    3    6     3     2    1.7175E+00  2.4905E-01   1.4684E+00  0.000E+00  0.000E+00  0.000E+00  1.07264E+03  1.727E+00  8.909E+00  6.682E-02  1.864E+00
   1    3    7     3     3    1.4684E+00  1.9718E-01   1.2712E+00  0.000E+00  0.000E+00  0.000E+00  1.06987E+03  1.555E+00  8.218E+00  5.547E-02  1.777E+00
   1    4    8     3     4    1.2712E+00  2.2567E-01   1.0456E+00  0.000E+00  0.000E+00  0.000E+00  1.06682E+03  1.364E+00  7.455E+00  6.709E-02  1.682E+00
   1    5    8     3     5    1.0456E+00  1.5790E-01   8.8768E-01  0.000E+00  0.000E+00  0.000E+00  1.06362E+03  1.164E+00  6.655E+00  4.991E-02  1.582E+00
   1    6    8     3     6    8.8768E-01  5.5980E-02   8.3170E-01  0.000E+00  0.000E+00  0.000E+00  1.06158E+03  1.036E+00  6.145E+00  1.844E-02  1.518E+00
   1    5   10     4     1    1.0000E+01  9.0919E-02   9.9091E+00  0.000E+00  0.000E+00  0.000E+00  1.07836E+03  6.368E-01  1.000E+01  2.500E-02  1.212E+00
   1    5    9     4     2    9.9091E+00  1.8158E-01   9.7275E+00  0.000E+00  0.000E+00  0.000E+00  1.07154E+03  6.315E-01  1.000E+01  5.000E-02  1.211E+00
   1    6    8     4     3    9.7275E+00  1.2689E-01   9.6006E+00  0.000E+00  0.000E+00  0.000E+00  1.06381E+03  6.256E-01  1.000E+01  3.500E-02  1.209E+00
   1    6    8     5     1    1.0432E+01  2.2686E-01   1.0205E+01  0.000E+00  0.000E+00  0.000E+00  1.05868E+03  6.790E-01  1.542E+01  6.166E-02  1.226E+00
   1    7    7     5     2    1.0205E+01  2.7894E-01   9.9265E+00  0.000E+00  0.000E+00  0.000E+00  1.05417E+03  6.732E-01  1.519E+01  7.594E-02  1.224E+00
   1    8    7     5     3    9.9265E+00  1.9221E-01   9.7343E+00  0.000E+00  0.000E+00  0.000E+00  1.04992E+03  6.676E-01  1.497E+01  5.241E-02  1.223E+00
   1    8    6     5     4    9.7343E+00  1.3577E-01   9.5985E+00  0.000E+00  0.000E+00  0.000E+00  1.04691E+03  6.637E-01  1.482E+01  3.706E-02  1.221E+00
   1    9    6     6     1    9.5985E+00  2.2097E-01   9.3776E+00  0.000E+00  0.000E+00  0.000E+00  1.04341E+03  6.828E-01  1.200E+01  6.000E-02  1.228E+00
   1   10    7     6     2    9.3776E+00  2.2039E-01   9.1572E+00  0.000E+00  0.000E+00  0.000E+00  1.03885E+03  6.732E-01  1.200E+01  6.000E-02  1.224E+00
   1   11    7     6     3    9.1572E+00  2.1981E-01   8.9374E+00  0.000E+00  0.000E+00  0.000E+00  1.03430E+03  6.636E-01  1.200E+01  6.000E-02  1.221E+00
   1   12    7     6     4    8.9374E+00  2.1923E-01   8.7181E+00  0.000E+00  0.000E+00  0.000E+00  1.02974E+03  6.539E-01  1.200E+01  6.000E-02  1.218E+00
   1   13    7     6     5    8.7181E+00  1.6212E-03   8.7165E+00  0.000E+00  0.000E+00  0.000E+00  1.02656E+03  6.489E-01  1.200E+01  2.400E-02  2.252E-02
   1   14    9     7     1    1.5000E+02  1.4012E+00   1.4860E+02  0.000E+00  0.000E+00  0.000E+00  1.03987E+03  2.288E+00  5.529E+01  5.593E-01  8.351E-01
   1   13    8     7     2    1.4860E+02  2.0325E+00   1.4657E+02  0.000E+00  0.000E+00  0.000E+00  1.03478E+03  2.278E+00  5.525E+01  6.147E-01  1.102E+00
   1   13    7     7     3    1.4657E+02  1.7851E+00   1.4478E+02  0.000E+00  0.000E+00  0.000E+00  1.02969E+03  2.268E+00  5.521E+01  5.583E-01  1.066E+00
   1   13    6     8     1    1.5350E+02  1.1285E+00   1.5237E+02  0.000E+00  0.000E+00  0.000E+00  1.02471E+03  2.837E+00  4.114E+01  4.193E-01  8.973E-01
   1   13    5     8     2    1.5237E+02  3.7509E-01   1.5199E+02  0.000E+00  0.000E+00  0.000E+00  1.01846E+03  2.832E+00  4.107E+01  4.185E-01  2.988E-01
   1   13    4     8     3    1.5199E+02 -1.7444E+00   1.5374E+02  0.000E+00  0.000E+00  0.000E+00  1.01221E+03  2.837E+00  4.114E+01  4.192E+00 -1.387E-01
   1   13    3     8     4    1.5374E+02 -3.2964E+00   1.5703E+02  0.000E+00  0.000E+00  0.000E+00  1.00598E+03  2.854E+00  4.139E+01  4.218E+00 -2.605E-01
   1   13    2     8     5    1.5703E+02 -2.4942E+00   1.5953E+02  0.000E+00  0.000E+00  0.000E+00  9.99749E+02  2.874E+00  4.168E+01  4.247E+00 -1.958E-01
   1   13    1     8     6    1.5953E+02 -1.9656E+00   1.6149E+02  0.000E+00  0.000E+00  0.000E+00  9.94764E+02  2.889E+00  4.189E+01  2.562E+00 -2.558E-01
   1    8    6     9     1    2.3479E+01  0.0000E+00   2.3479E+01  0.000E+00  0.000E+00  0.000E+00  1.08253E+03  3.782E+00  4.000E+00  0.000E+00  2.261E+00
   1    8    5     9     2    2.3479E+01  0.0000E+00   2.3479E+01  0.000E+00  0.000E+00  0.000E+00  1.08203E+03  3.782E+00  4.000E+00  0.000E+00  2.261E+00





UNSATURATED ZONE PACKAGE VOLUMETRIC BUDGET FOR  TIME STEP    30 STRESS PERIOD   32
  ------------------------------------------------------------------------------



     CUMULATIVE VOLUMES      L**3       RATES FOR THIS TIME STEP      L**3/T
     ------------------                 ------------------------

           IN:                                      IN:
           ---                                      ---
        INFILTRATION =  5303962927.7298          INFILTRATION =         624.3265

          OUT:                                     OUT:
          ----                                     ----
              UZF ET =  1117631329.1731                UZF ET =          60.8175
        UZF RECHARGE =  3531362216.3158          UZF RECHARGE =       0.0000E+00

            IN - OUT =   654969382.2409              IN - OUT =         563.5090

          STORAGE:                                 STORAGE:
          --------                                 --------
      STORAGE CHANGE =   655004774.2166        STORAGE CHANGE =         563.5091

 PERCENT DISCREPANCY IS DIFFERENCE BETWEEN IN-OUT MINUS CHANGE IN STORAGE
 DIVIDED BY THE AVERAGE OF IN AND OUT TIMES 100

 PERCENT DISCREPANCY =          -0.00     PERCENT DISCREPANCY =          -0.00






1
  VOLUMETRIC BUDGET FOR AGRICULTURAL FIELDS AT  END OF TIME STEP   30, STRESS PERIOD  32
  ------------------------------------------------------------------------------

     CUMULATIVE VOLUMES      L**3       RATES FOR THIS TIME STEP      L**3/T
     ------------------                 ------------------------

           IN:                                      IN:
           ---                                      ---
               AG WELLS  =  4525137408.0000                 AG WELLS  =         600.0000
      DIVERSION SEGMENTS =   709651392.0000        DIVERSION SEGMENTS =          23.4787
           GW IRRIGATION =           0.0000             GW IRRIGATION =           0.0000
           SW IRRIGATION =           0.0000             SW IRRIGATION =           0.0000
        SYSTEM LOSSES GW =           0.0000          SYSTEM LOSSES GW =           0.0000
        SYSTEM LOSSES SW =           0.0000          SYSTEM LOSSES SW =           0.0000

                TOTAL IN =  5234788864.0000                  TOTAL IN =         623.4786

          OUT:                                     OUT:
          ----                                     ----
               AG WELLS  =           0.0000                 AG WELLS  =           0.0000
      DIVERSION SEGMENTS =           0.0000        DIVERSION SEGMENTS =           0.0000
           GW IRRIGATION =  4525137408.0000             GW IRRIGATION =         600.0000
           SW IRRIGATION =   709666176.0000             SW IRRIGATION =          23.4791
        SYSTEM LOSSES GW =           0.0000          SYSTEM LOSSES GW =           0.0000
        SYSTEM LOSSES SW =           0.0000          SYSTEM LOSSES SW =           0.0000

               TOTAL OUT =  5234803712.0000                 TOTAL OUT =         623.4791

                IN - OUT =      -14848.0000                  IN - OUT =      -4.8828E-04

     PERCENT DISCREPANCY =          -0.00         PERCENT DISCREPANCY =          -0.00



1
  VOLUMETRIC BUDGET FOR ENTIRE MODEL AT END OF TIME STEP   30, STRESS PERIOD  32
  ------------------------------------------------------------------------------

     CUMULATIVE VOLUMES      L**3       RATES FOR THIS TIME STEP      L**3/T
     ------------------                 ------------------------

           IN:                                      IN:
           ---                                      ---
             STORAGE     =  4486213120.0000               STORAGE     =         597.0806
       CONSTANT HEAD     =           0.0000         CONSTANT HEAD     =           0.0000
     HEAD DEP BOUNDS     =    23559896.0000       HEAD DEP BOUNDS     =           0.2902
      STREAM LEAKAGE     =   981912320.0000        STREAM LEAKAGE     =          12.6513
        UZF RECHARGE     =  3531361792.0000          UZF RECHARGE     =           0.0000
               GW ET     =           0.0000                 GW ET     =           0.0000
     SURFACE LEAKAGE     =           0.0000       SURFACE LEAKAGE     =           0.0000
           AG WELLS      =           0.0000             AG WELLS      =           0.0000

                TOTAL IN =  9023047680.0000                  TOTAL IN =         610.0222

          OUT:                                     OUT:
          ----                                     ----
             STORAGE     =  3676878336.0000               STORAGE     =           0.2354
       CONSTANT HEAD     =           0.0000         CONSTANT HEAD     =           0.0000
     HEAD DEP BOUNDS     =    23452900.0000       HEAD DEP BOUNDS     =           0.2862
      STREAM LEAKAGE     =   797504000.0000        STREAM LEAKAGE     =           9.5006
        UZF RECHARGE     =           0.0000          UZF RECHARGE     =           0.0000
               GW ET     =           0.0000                 GW ET     =           0.0000
     SURFACE LEAKAGE     =           0.0000       SURFACE LEAKAGE     =           0.0000
           AG WELLS      =  4525137408.0000             AG WELLS      =         600.0000

               TOTAL OUT =  9022971904.0000                 TOTAL OUT =         610.0222

                IN - OUT =       75776.0000                  IN - OUT =           0.0000

     PERCENT DISCREPANCY =           0.00         PERCENT DISCREPANCY =           0.00






         TIME SUMMARY AT END OF TIME STEP   30 IN STRESS PERIOD   32
                    SECONDS     MINUTES      HOURS       DAYS        YEARS
                    -----------------------------------------------------------
   TIME STEP LENGTH  87667.      1461.1      24.352      1.0147     2.77799E-03
 STRESS PERIOD TIME 2.63000E+06  43833.      730.56      30.440     8.33397E-02
         TOTAL TIME 8.16164E+07 1.36027E+06  22671.      944.63      2.5863    
1
1
                            STRESS PERIOD NO.   33, LENGTH =   2630000.    
                            -----------------------------------------------

                              NUMBER OF TIME STEPS =    30

                               MULTIPLIER FOR DELT =     1.000

                            INITIAL TIME STEP SIZE =   87666.66    

 REUSING NON-PARAMETER GHB CELLS FROM LAST STRESS PERIOD

      2 GHB CELLS

 REUSING STREAM SEGMENT DATA FROM LAST STRESS PERIOD



            AREAL INFILTRATION RATE
 READING ON UNIT   19 WITH FORMAT: (FREE)              

            1           2           3           4           5           6           7           8           9          10
 ........................................................................................................................
   1   1.0000E-10  2.0000E-10   0.000       0.000       0.000       0.000       0.000       0.000       0.000       0.000    
   2   2.0000E-10  1.0000E-10  2.0000E-10   0.000       0.000      8.0000E-10  8.0000E-10  5.0000E-10   0.000       0.000    
   3    0.000      5.0000E-10  1.0000E-10  1.0000E-10  8.0000E-10  8.0000E-10  5.0000E-10  5.0000E-10   0.000       0.000    
   4   8.0000E-10  5.0000E-10  1.0000E-10  1.0000E-10  1.0000E-10  1.0000E-10  1.0000E-10  1.0000E-10  2.0000E-10   0.000    
   5   8.0000E-10  5.0000E-10  1.0000E-10  1.0000E-10  1.0000E-10  1.0000E-10  1.0000E-10  1.0000E-10  1.0000E-10  1.0000E-10
   6   8.0000E-10  5.0000E-10  5.0000E-10  2.0000E-10  2.0000E-10  1.0000E-10  1.0000E-10  1.0000E-10  1.0000E-10  5.0000E-10
   7   8.0000E-10  5.0000E-10  5.0000E-10  2.0000E-10  2.0000E-10  1.0000E-10  1.0000E-10  2.0000E-10  2.0000E-10   0.000    
   8    0.000      5.0000E-10  5.0000E-10  2.0000E-10  2.0000E-10  1.0000E-10  1.0000E-10  2.0000E-10  5.0000E-10   0.000    
   9    0.000      5.0000E-10  5.0000E-10  2.0000E-10  2.0000E-10  1.0000E-10  1.0000E-10  2.0000E-10  5.0000E-10   0.000    
  10    0.000      5.0000E-10  5.0000E-10  2.0000E-10  2.0000E-10  1.0000E-10  1.0000E-10  2.0000E-10  5.0000E-10  8.0000E-10
  11    0.000      1.0000E-10  1.0000E-10  1.0000E-10  1.0000E-10  1.0000E-10  1.0000E-10  2.0000E-10  5.0000E-10   0.000    
  12   1.0000E-10  1.0000E-10  1.0000E-10  1.0000E-10  1.0000E-10  1.0000E-10  1.0000E-10  1.0000E-10  2.0000E-10   0.000    
  13   1.0000E-10  1.0000E-10  2.0000E-10  2.0000E-10  2.0000E-10  2.0000E-10  2.0000E-10  1.0000E-10  1.0000E-10   0.000    
  14    0.000      2.0000E-10  5.0000E-10  5.0000E-10  5.0000E-10  5.0000E-10  5.0000E-10  2.0000E-10  1.0000E-10   0.000    
  15    0.000       0.000      8.0000E-10  8.0000E-10  8.0000E-10  8.0000E-10   0.000       0.000       0.000       0.000    

                  ET RATE =  3.250000E-07

 USING ET EXTINCTION DEPTH FROM PREVIOUS STRESS PERIOD. CURRENT PERIOD IS:      33

 USING EXTINCTION WATER CONTENT FROM PREVIOUS STRESS PERIOD. CURRENT PERIOD IS:      33

 USING AIR ENTRY PRESSURE FROM PREVIOUS STRESS PERIOD. CURRENT PERIOD IS:      33

 USING ROOT PRESSURE HEAD FROM PREVIOUS STRESS PERIOD. CURRENT PERIOD IS:      33

 USING ROOT ACTIVITY FROM PREVIOUS STRESS PERIOD. CURRENT PERIOD IS:      33

 PROCESSING AG STRESS PERIOD DATA

 READING AG STRESS PERIOD DATA

 READING IRRIGATION SEGMENT

 READING IRRIGATION WELL

 READING SUPPLEMENTAL WELL

 END PROCESSING AG STRESS PERIOD DATA OPTIONS
 
 SOLVING FOR HEAD 
                                                   Max.-Head-Change                         Max.-Flux-Residual
  Residual-Control   Outer-Iter.   Inner-Iter.     Column Row Layer    Maximum-Head-Change  Column Row Layer    Maximum-Flux-Residual          L2-NORM 
          0                 1           2             5    8     1       0.1617725546E+01       5    8    1         0.8926692128E+02      0.8987970525E+02
          0                 2           2             5    8     1       0.2651737221E+00       5    8    1         0.1476782171E+02      0.1806030218E+02
          0                 3           2             5    8     1       0.5638361491E-01       5    8    1         0.3101865456E+01      0.3187418309E+01
          0                 4           2             5    8     1       0.1198971803E-01       5    8    1         0.6619543733E+00      0.6625394462E+00
          0                 5           1             5    8     1       0.2549581099E-02       5    8    1         0.1406717747E+00      0.1406792549E+00
          0                 6           1             5    8     1       0.5421627856E-03       5    8    1         0.2991168356E-01      0.2991392779E-01
          0                 7           1             5    8     1       0.1152897732E-03       5    8    1         0.6360683424E-02      0.6361166274E-02
          0                 8           1             5    8     1       0.2451612970E-04       5    8    1         0.1352582776E-02      0.1352685936E-02

    ------------------------------------------------
       NWT REQUIRED            8 OUTER ITERATIONS 
       AND A TOTAL OF         12 INNER ITERATIONS.
    ------------------------------------------------

 NO OUTPUT CONTROL FOR STRESS PERIOD   33   TIME STEP    1
 
 SOLVING FOR HEAD 
                                                   Max.-Head-Change                         Max.-Flux-Residual
  Residual-Control   Outer-Iter.   Inner-Iter.     Column Row Layer    Maximum-Head-Change  Column Row Layer    Maximum-Flux-Residual          L2-NORM 
          0                 1           2             4    8     1       0.1598353229E+01       4    8    1         0.8660256838E+02      0.1192063712E+03
          0                 2           2             5    7     1       0.5355652684E+00       5    7    1         0.2915788595E+02      0.3997414193E+02
          0                 3           2             4    6     1      -0.1756364792E+01       5    8    1        -0.9659515789E+02      0.2247792627E+03
          0                 4           2             5    6     1      -0.9120739349E+00       5    6    1        -0.5122660177E+02      0.7402483736E+02
          0                 5           2             5    7     1      -0.4098148663E+00       5    7    1        -0.2300002863E+02      0.3044317541E+02
          0                 6           2             5    7     1      -0.2404369912E+00       5    7    1        -0.1365733026E+02      0.1460897356E+02
          0                 7           2             5    7     1      -0.1410635057E+00       5    7    1        -0.8000837982E+01      0.8549259616E+01
          0                 8           2             5    7     1      -0.8276180051E-01       5    7    1        -0.4694386672E+01      0.5028808896E+01
          0                 9           2             5    7     1      -0.4855627895E-01       5    7    1        -0.2754134586E+01      0.2958128588E+01
          0                10           2             5    7     1      -0.2848790356E-01       5    7    1        -0.1615820235E+01      0.1740240723E+01
                                                   Max.-Head-Change                         Max.-Flux-Residual
  Residual-Control   Outer-Iter.   Inner-Iter.     Column Row Layer    Maximum-Head-Change  Column Row Layer    Maximum-Flux-Residual          L2-NORM 
          0                11           2             5    7     1      -0.1671378716E-01       5    7    1        -0.9479836129E+00      0.1023862420E+01
          0                12           2             5    7     1      -0.9805919896E-02       5    7    1        -0.5561706630E+00      0.6024410354E+00
          0                13           2             5    7     1      -0.5753085332E-02       5    7    1        -0.3262980840E+00      0.3545104283E+00
          0                14           2             5    7     1      -0.3375298976E-02       5    7    1        -0.1914344221E+00      0.2086344346E+00
          0                15           2             5    7     1      -0.1980261872E-02       5    7    1        -0.1123115790E+00      0.1227966518E+00
          0                16           2             5    7     1      -0.1161801564E-02       5    7    1        -0.6589128873E-01      0.7228226051E-01
          0                17           2             5    7     1      -0.6816167587E-03       5    7    1        -0.3865720378E-01      0.4255226913E-01
          0                18           2             5    7     1      -0.3998964602E-03       5    7    1        -0.2267941517E-01      0.2505305387E-01
          0                19           2             5    7     1      -0.2346139798E-03       5    7    1        -0.1330553274E-01      0.1475185841E-01
          0                20           2             5    7     1      -0.1376446305E-03       5    7    1        -0.7806056947E-02      0.8687245333E-02
          0                21           1             5    7     1      -0.8075394556E-04       5    7    1        -0.4579628223E-02      0.5116440192E-02

    ------------------------------------------------
       NWT REQUIRED           21 OUTER ITERATIONS 
       AND A TOTAL OF         41 INNER ITERATIONS.
    ------------------------------------------------

 NO OUTPUT CONTROL FOR STRESS PERIOD   33   TIME STEP    2
 
 SOLVING FOR HEAD 
                                                   Max.-Head-Change                         Max.-Flux-Residual
  Residual-Control   Outer-Iter.   Inner-Iter.     Column Row Layer    Maximum-Head-Change  Column Row Layer    Maximum-Flux-Residual          L2-NORM 
          0                 1           2             5    6     1       0.1290359969E+01       5    6    1         0.7029036907E+02      0.1099873859E+03
          0                 2           2             4    7     1       0.2328337407E+00       4    7    1         0.1261044782E+02      0.2013216191E+02
          0                 3           2             4    7     1       0.1100036709E+00       4    7    1         0.5824785097E+01      0.1105286687E+02
          0                 4           2             4    6     1      -0.6638882530E-01       5    8    1        -0.3862487791E+01      0.7550337708E+01
          0                 5           2             4    8     1      -0.1431253619E-01       4    8    1        -0.8367658729E+00      0.1368685380E+01
          0                 6           2             4    8     1      -0.4049573993E-02       4    8    1        -0.2368581470E+00      0.3538666785E+00
          0                 7           2             4    8     1      -0.1144110276E-02       4    8    1        -0.6698742327E-01      0.9270332403E-01
          0                 8           2             4    8     1      -0.3228372364E-03       4    8    1        -0.1891976162E-01      0.2455048447E-01
          0                 9           1             4    8     1      -0.9099838090E-04       4    8    1        -0.5337239433E-02      0.6567115706E-02

    ------------------------------------------------
       NWT REQUIRED            9 OUTER ITERATIONS 
       AND A TOTAL OF         17 INNER ITERATIONS.
    ------------------------------------------------

 NO OUTPUT CONTROL FOR STRESS PERIOD   33   TIME STEP    3
 
 SOLVING FOR HEAD 
                                                   Max.-Head-Change                         Max.-Flux-Residual
  Residual-Control   Outer-Iter.   Inner-Iter.     Column Row Layer    Maximum-Head-Change  Column Row Layer    Maximum-Flux-Residual          L2-NORM 
          0                 1           2             4    6     1       0.1237329223E+01       4    6    1         0.6740218597E+02      0.6840930537E+02
          0                 2           2             4    6     1       0.2105895529E+00       4    6    1         0.1153866180E+02      0.1228189085E+02
          0                 3           2             4    6     1       0.1018138859E+00       4    6    1         0.5474811354E+01      0.7854642049E+01
          0                 4           2             4    6     1      -0.1814337818E+01       4    8    1        -0.9925037473E+02      0.2425375990E+03
          0                 5           2             4    6     1      -0.4325968894E+00       4    6    1        -0.2422246710E+02      0.2440898245E+02
          0                 6           2             4    6     1      -0.1029087483E+00       4    6    1        -0.5766788302E+01      0.5766928023E+01
          0                 7           2             4    6     1      -0.2447881854E-01       4    6    1        -0.1371654359E+01      0.1371672342E+01
          0                 8           2             4    6     1      -0.5822527757E-02       4    6    1        -0.3262586068E+00      0.3262626799E+00
          0                 9           2             4    6     1      -0.1384900953E-02       4    6    1        -0.7760054908E-01      0.7760152085E-01
          0                10           2             4    6     1      -0.3293916806E-03       4    6    1        -0.1845672341E-01      0.1845695453E-01
          0                11           1             4    6     1      -0.7834178769E-04       4    6    1        -0.4389665074E-02      0.4389720045E-02

    ------------------------------------------------
       NWT REQUIRED           11 OUTER ITERATIONS 
       AND A TOTAL OF         21 INNER ITERATIONS.
    ------------------------------------------------

 NO OUTPUT CONTROL FOR STRESS PERIOD   33   TIME STEP    4
 
 SOLVING FOR HEAD 
                                                   Max.-Head-Change                         Max.-Flux-Residual
  Residual-Control   Outer-Iter.   Inner-Iter.     Column Row Layer    Maximum-Head-Change  Column Row Layer    Maximum-Flux-Residual          L2-NORM 
          0                 1           2             5    8     1       0.9320369529E+00       5    8    1         0.5133708835E+02      0.5379999450E+02
          0                 2           2             5    8     1       0.4650813044E+00       5    8    1         0.2578260926E+02      0.2729485996E+02
          0                 3           2             5    8     1       0.1561668199E+00       5    8    1         0.8515257544E+01      0.1114814901E+02
          0                 4           2             4    7     1      -0.6798027922E-01       5    6    1        -0.3867756593E+01      0.8521842764E+01
          0                 5           2             4    6     1      -0.1491521528E-01       4    6    1        -0.8846895611E+00      0.1007339171E+01
          0                 6           2             4    6     1      -0.4156950105E-02       4    6    1        -0.2461672843E+00      0.2697062617E+00
          0                 7           2             4    6     1      -0.1158532255E-02       4    6    1        -0.6859724222E-01      0.7328802885E-01
          0                 8           2             4    6     1      -0.3228716342E-03       4    6    1        -0.1911685984E-01      0.2004856149E-01
          0                 9           1             4    6     1      -0.8997881039E-04       4    6    1        -0.5327479362E-02      0.5512047176E-02

    ------------------------------------------------
       NWT REQUIRED            9 OUTER ITERATIONS 
       AND A TOTAL OF         17 INNER ITERATIONS.
    ------------------------------------------------

 NO OUTPUT CONTROL FOR STRESS PERIOD   33   TIME STEP    5
 
 SOLVING FOR HEAD 
                                                   Max.-Head-Change                         Max.-Flux-Residual
  Residual-Control   Outer-Iter.   Inner-Iter.     Column Row Layer    Maximum-Head-Change  Column Row Layer    Maximum-Flux-Residual          L2-NORM 
          0                 1           2             4    8     1       0.1124314062E+01       4    8    1         0.6102836523E+02      0.7522691741E+02
          0                 2           2             4    8     1       0.6034506628E+00       4    8    1         0.3279660044E+02      0.3923967376E+02
          0                 3           2             4    8     1       0.4107084363E+00       4    8    1         0.2219554410E+02      0.2773651672E+02
          0                 4           2             4    7     1      -0.1760319466E+01       4    7    1        -0.1000297306E+03      0.2366092980E+03
          0                 5           2             5    7     1      -0.9966155087E+00       5    7    1        -0.5634029259E+02      0.7694860993E+02
          0                 6           2             4    8     1      -0.5483583835E+00       4    8    1        -0.3056954786E+02      0.3611913848E+02
          0                 7           2             4    8     1      -0.3279630405E+00       4    8    1        -0.1828757808E+02      0.1833723913E+02
          0                 8           2             4    8     1      -0.1961503939E+00       4    8    1        -0.1093711076E+02      0.1093726610E+02
          0                 9           2             4    8     1      -0.3045545605E-01       4    8    1        -0.1700552797E+01      0.1700666182E+01
          0                10           2             4    8     1       0.2075379066E-02       4    8    1         0.1191948301E+00      0.1192085978E+00
          0                11           1             4    8     1      -0.8267921042E-04       4    8    1        -0.4882027844E-02      0.4883488476E-02

    ------------------------------------------------
       NWT REQUIRED           11 OUTER ITERATIONS 
       AND A TOTAL OF         21 INNER ITERATIONS.
    ------------------------------------------------

 NO OUTPUT CONTROL FOR STRESS PERIOD   33   TIME STEP    6
 
 SOLVING FOR HEAD 
                                                   Max.-Head-Change                         Max.-Flux-Residual
  Residual-Control   Outer-Iter.   Inner-Iter.     Column Row Layer    Maximum-Head-Change  Column Row Layer    Maximum-Flux-Residual          L2-NORM 
          0                 1           2             4    8     1       0.1325161646E+01       4    8    1         0.7165997446E+02      0.1193716278E+03
          0                 2           2             5    6     1       0.4291049808E+00       5    6    1         0.2354063212E+02      0.3118730428E+02
          0                 3           2             4    7     1       0.1677584117E+00       4    7    1         0.8917147733E+01      0.1528903851E+02
          0                 4           2             5    8     1      -0.6556190073E-01       5    8    1        -0.3857382560E+01      0.6927431394E+01
          0                 5           2             4    7     1       0.1576406501E-01       4    7    1         0.8732966005E+00      0.1300241083E+01
          0                 6           2             4    7     1       0.9127610844E-02       4    7    1         0.5003436927E+00      0.5483808971E+00
          0                 7           2             4    7     1       0.5317171388E-02       4    7    1         0.2901052933E+00      0.2945324417E+00
          0                 8           2             4    7     1       0.3105205505E-02       4    7    1         0.1690919734E+00      0.1694246126E+00
          0                 9           1             4    7     1       0.1815285283E-02       4    7    1         0.9877174530E-01      0.9878843618E-01
          0                10           1             4    7     1       0.1061646136E-02       4    7    1         0.5774620939E-01      0.5774950506E-01
                                                   Max.-Head-Change                         Max.-Flux-Residual
  Residual-Control   Outer-Iter.   Inner-Iter.     Column Row Layer    Maximum-Head-Change  Column Row Layer    Maximum-Flux-Residual          L2-NORM 
          0                11           1             4    7     1       0.6209956035E-03       4    7    1         0.3377290046E-01      0.3377721239E-01
          0                12           1             4    7     1       0.3632703597E-03       4    7    1         0.1975520467E-01      0.1975879388E-01
          0                13           1             4    7     1       0.2125131791E-03       4    7    1         0.1155646319E-01      0.1155888880E-01
          0                14           1             4    7     1       0.1243220514E-03       4    7    1         0.6760545196E-02      0.6762054020E-02
          0                15           1             4    7     1       0.7272995099E-04       4    7    1         0.3954981099E-02      0.3955887621E-02

    ------------------------------------------------
       NWT REQUIRED           15 OUTER ITERATIONS 
       AND A TOTAL OF         23 INNER ITERATIONS.
    ------------------------------------------------

 NO OUTPUT CONTROL FOR STRESS PERIOD   33   TIME STEP    7
 
 SOLVING FOR HEAD 
                                                   Max.-Head-Change                         Max.-Flux-Residual
  Residual-Control   Outer-Iter.   Inner-Iter.     Column Row Layer    Maximum-Head-Change  Column Row Layer    Maximum-Flux-Residual          L2-NORM 
          0                 1           2             4    6     1       0.1719391536E+01       4    6    1         0.9328385962E+02      0.9927226606E+02
          0                 2           2             4    6     1       0.4609843487E+00       4    6    1         0.2509163810E+02      0.2588039669E+02
          0                 3           2             4    6     1       0.1565977224E+00       4    6    1         0.8438231340E+01      0.1089610720E+02
          0                 4           2             4    7     1      -0.1844955717E+01       5    8    1        -0.1000603504E+03      0.2428040597E+03
          0                 5           2             4    7     1      -0.4490902220E+00       4    7    1        -0.2474200915E+02      0.3470447472E+02
          0                 6           2             4    6     1      -0.2109496624E+00       4    6    1        -0.1174843512E+02      0.1286941594E+02
          0                 7           2             4    6     1      -0.1254743458E+00       4    6    1        -0.7035988813E+01      0.7045618180E+01
          0                 8           2             4    6     1      -0.7463337284E-01       4    6    1        -0.4181727854E+01      0.4181771406E+01
          0                 9           2             4    6     1      -0.4439251226E-01       4    6    1        -0.2487390964E+01      0.2487396089E+01
          0                10           2             4    6     1      -0.2640489717E-01       4    6    1        -0.1479492882E+01      0.1479496055E+01
                                                   Max.-Head-Change                         Max.-Flux-Residual
  Residual-Control   Outer-Iter.   Inner-Iter.     Column Row Layer    Maximum-Head-Change  Column Row Layer    Maximum-Flux-Residual          L2-NORM 
          0                11           2             4    6     1      -0.1570568872E-01       4    6    1        -0.8799955034E+00      0.8799973900E+00
          0                12           2             4    6     1      -0.9341723981E-02       4    6    1        -0.5234146996E+00      0.5234158220E+00
          0                13           2             4    6     1      -0.5556412672E-02       4    6    1        -0.3113214230E+00      0.3113220907E+00
          0                14           2             4    6     1      -0.3304907419E-02       4    6    1        -0.1851695486E+00      0.1851699458E+00
          0                15           2             4    6     1      -0.1965718849E-02       4    6    1        -0.1101355445E+00      0.1101357808E+00
          0                16           2             4    6     1      -0.1169178389E-02       4    6    1        -0.6550625281E-01      0.6550639333E-01
          0                17           2             4    6     1      -0.6954043684E-03       4    6    1        -0.3896146646E-01      0.3896155003E-01
          0                18           2             4    6     1      -0.4136102549E-03       4    6    1        -0.2317315129E-01      0.2317320100E-01
          0                19           2             4    6     1      -0.2460041451E-03       4    6    1        -0.1378263172E-01      0.1378266136E-01
          0                20           2             4    6     1      -0.1463156533E-03       4    6    1        -0.8197406120E-02      0.8197423956E-02
          0                21           1             4    6     1      -0.8702346962E-04       4    6    1        -0.4875486886E-02      0.4875497471E-02

    ------------------------------------------------
       NWT REQUIRED           21 OUTER ITERATIONS 
       AND A TOTAL OF         41 INNER ITERATIONS.
    ------------------------------------------------

 NO OUTPUT CONTROL FOR STRESS PERIOD   33   TIME STEP    8
 
 SOLVING FOR HEAD 
                                                   Max.-Head-Change                         Max.-Flux-Residual
  Residual-Control   Outer-Iter.   Inner-Iter.     Column Row Layer    Maximum-Head-Change  Column Row Layer    Maximum-Flux-Residual          L2-NORM 
          0                 1           2             4    6     1       0.4553103403E+00       4    6    1         0.2467250353E+02      0.3853380321E+02
          0                 2           2             5    8     1       0.1754939416E+00       5    8    1         0.9799939532E+01      0.1338444854E+02
          0                 3           2             5    8     1       0.1582285182E+00       5    8    1         0.8628000832E+01      0.1147271119E+02
          0                 4           2             4    7     1      -0.6791304514E-01       5    6    1        -0.3865091429E+01      0.8377014810E+01
          0                 5           2             4    6     1      -0.1309593426E-01       4    6    1        -0.7352411171E+00      0.1004272943E+01
          0                 6           2             5    8     1       0.7077446009E-02       5    8    1         0.3903879086E+00      0.4276518332E+00
          0                 7           2             5    8     1       0.4071539694E-02       5    8    1         0.2245957253E+00      0.2284040036E+00
          0                 8           2             5    8     1       0.2342292829E-02       5    8    1         0.1292064417E+00      0.1295846111E+00
          0                 9           1             5    8     1       0.1347484721E-02       5    8    1         0.7433044935E-01      0.7436826400E-01
          0                10           1             5    8     1       0.7751871352E-03       5    8    1         0.4276115745E-01      0.4276556504E-01
                                                   Max.-Head-Change                         Max.-Flux-Residual
  Residual-Control   Outer-Iter.   Inner-Iter.     Column Row Layer    Maximum-Head-Change  Column Row Layer    Maximum-Flux-Residual          L2-NORM 
          0                11           1             5    8     1       0.4459531901E-03       5    8    1         0.2459983437E-01      0.2460093363E-01
          0                12           1             5    8     1       0.2565499849E-03       5    8    1         0.1415190546E-01      0.1415208727E-01
          0                13           1             5    8     1       0.1475892446E-03       5    8    1         0.8141372957E-02      0.8141453645E-02
          0                14           1             5    8     1       0.8490581253E-04       5    8    1         0.4683606245E-02      0.4686885792E-02

    ------------------------------------------------
       NWT REQUIRED           14 OUTER ITERATIONS 
       AND A TOTAL OF         22 INNER ITERATIONS.
    ------------------------------------------------

 NO OUTPUT CONTROL FOR STRESS PERIOD   33   TIME STEP    9
 
 SOLVING FOR HEAD 
                                                   Max.-Head-Change                         Max.-Flux-Residual
  Residual-Control   Outer-Iter.   Inner-Iter.     Column Row Layer    Maximum-Head-Change  Column Row Layer    Maximum-Flux-Residual          L2-NORM 
          0                 1           2             5    8     1       0.7923772649E+00       5    8    1         0.4324880923E+02      0.5561914996E+02
          0                 2           2             4    8     1       0.2724549963E+00       4    8    1         0.1471445928E+02      0.1703453535E+02
          0                 3           2             4    8     1       0.2169479195E+00       4    8    1         0.1167287700E+02      0.1410430308E+02
          0                 4           2             5    7     1      -0.1795644212E+01       5    6    1        -0.1000564298E+03      0.2399909528E+03
          0                 5           2             4    8     1      -0.9850144892E+00       4    8    1        -0.5457276146E+02      0.5998769299E+02
          0                 6           2             5    8     1      -0.1030190417E+00       5    8    1        -0.5904835218E+01      0.7045441976E+01
          0                 7           2             5    8     1      -0.2413254669E-01       5    8    1        -0.1365806402E+01      0.1375149145E+01
          0                 8           1             5    8     1      -0.5652797195E-02       5    8    1        -0.3205414607E+00      0.3205446599E+00
          0                 9           1             5    8     1      -0.1324063419E-02       5    8    1        -0.7507229373E-01      0.7507344143E-01
          0                10           1             5    8     1      -0.3101276466E-03       5    8    1        -0.1758367741E-01      0.1758392242E-01
          0                11           1             5    8     1      -0.7263715262E-04       5    8    1        -0.4118355416E-02      0.4118413107E-02

    ------------------------------------------------
       NWT REQUIRED           11 OUTER ITERATIONS 
       AND A TOTAL OF         18 INNER ITERATIONS.
    ------------------------------------------------

 NO OUTPUT CONTROL FOR STRESS PERIOD   33   TIME STEP   10
 
 SOLVING FOR HEAD 
                                                   Max.-Head-Change                         Max.-Flux-Residual
  Residual-Control   Outer-Iter.   Inner-Iter.     Column Row Layer    Maximum-Head-Change  Column Row Layer    Maximum-Flux-Residual          L2-NORM 
          0                 1           2             4    8     1       0.1331534418E+01       4    8    1         0.7204176482E+02      0.9828959152E+02
          0                 2           2             5    7     1       0.4527233165E+00       5    7    1         0.2477371403E+02      0.3227334620E+02
          0                 3           2             5    6     1       0.2291268373E+00       5    6    1         0.1245348517E+02      0.1681863389E+02
          0                 4           2             4    6     1      -0.6477359961E-01       4    6    1        -0.3856878306E+01      0.7118705026E+01
          0                 5           2             5    6     1       0.3601610704E-01       5    6    1         0.1992885142E+01      0.2724263488E+01
          0                 6           2             5    6     1       0.2068266479E-01       5    6    1         0.1142529186E+01      0.1501779930E+01
          0                 7           2             5    6     1       0.1189441081E-01       5    6    1         0.6562822127E+00      0.6627284810E+00
          0                 8           2             5    6     1       0.6844473014E-02       5    6    1         0.3774683771E+00      0.3780428211E+00
          0                 9           2             5    6     1       0.3939519576E-02       5    6    1         0.2172194819E+00      0.2172968151E+00
          0                10           2             5    6     1       0.2267730477E-02       5    6    1         0.1250282571E+00      0.1250471132E+00
                                                   Max.-Head-Change                         Max.-Flux-Residual
  Residual-Control   Outer-Iter.   Inner-Iter.     Column Row Layer    Maximum-Head-Change  Column Row Layer    Maximum-Flux-Residual          L2-NORM 
          0                11           2             5    6     1       0.1305449845E-02       5    6    1         0.7197127358E-01      0.7198057072E-01
          0                12           2             5    6     1       0.7515162719E-03       5    6    1         0.4143136617E-01      0.4143697655E-01
          0                13           2             5    6     1       0.4326342779E-03       5    6    1         0.2385108075E-01      0.2385446583E-01
          0                14           2             5    6     1       0.2490608476E-03       5    6    1         0.1373064341E-01      0.1373264470E-01
          0                15           2             5    6     1       0.1433807726E-03       5    6    1         0.7904521087E-02      0.7905688702E-02
          0                16           1             5    6     1       0.8254234370E-04       5    6    1         0.4550520624E-02      0.4551197191E-02

    ------------------------------------------------
       NWT REQUIRED           16 OUTER ITERATIONS 
       AND A TOTAL OF         31 INNER ITERATIONS.
    ------------------------------------------------

 NO OUTPUT CONTROL FOR STRESS PERIOD   33   TIME STEP   11
 
 SOLVING FOR HEAD 
                                                   Max.-Head-Change                         Max.-Flux-Residual
  Residual-Control   Outer-Iter.   Inner-Iter.     Column Row Layer    Maximum-Head-Change  Column Row Layer    Maximum-Flux-Residual          L2-NORM 
          0                 1           2             4    7     1       0.1821060889E+01       4    7    1         0.9803960812E+02      0.1226832508E+03
          0                 2           2             4    6     1       0.6511781894E+00       4    6    1         0.3518773844E+02      0.4009697894E+02
          0                 3           2             4    6     1       0.4382866548E+00       4    6    1         0.2373307252E+02      0.2568624257E+02
          0                 4           2             4    7     1      -0.1830356624E+01       4    8    1        -0.9915797071E+02      0.2404603155E+03
          0                 5           2             4    6     1      -0.8970711405E+00       4    6    1        -0.4959197349E+02      0.6158267699E+02
          0                 6           2             4    6     1      -0.5356078786E+00       4    6    1        -0.2994896471E+02      0.3061929818E+02
          0                 7           2             4    6     1      -0.3191440020E+00       4    6    1        -0.1785748209E+02      0.1792732980E+02
          0                 8           2             4    6     1      -0.1900105055E+00       4    6    1        -0.1063872778E+02      0.1064835044E+02
          0                 9           2             4    6     1      -0.1130910025E+00       4    6    1        -0.6333430331E+01      0.6335285780E+01
          0                10           2             4    6     1      -0.3262301358E-01       4    6    1        -0.1826624697E+01      0.1827731962E+01
                                                   Max.-Head-Change                         Max.-Flux-Residual
  Residual-Control   Outer-Iter.   Inner-Iter.     Column Row Layer    Maximum-Head-Change  Column Row Layer    Maximum-Flux-Residual          L2-NORM 
          0                11           2             4    6     1       0.2216872071E-02       4    6    1         0.1280144357E+00      0.1300478846E+00
          0                12           1             4    7     1      -0.8999380387E-04       4    6    1        -0.5252587996E-02      0.7224285886E-02

    ------------------------------------------------
       NWT REQUIRED           12 OUTER ITERATIONS 
       AND A TOTAL OF         23 INNER ITERATIONS.
    ------------------------------------------------

 NO OUTPUT CONTROL FOR STRESS PERIOD   33   TIME STEP   12
 
 SOLVING FOR HEAD 
                                                   Max.-Head-Change                         Max.-Flux-Residual
  Residual-Control   Outer-Iter.   Inner-Iter.     Column Row Layer    Maximum-Head-Change  Column Row Layer    Maximum-Flux-Residual          L2-NORM 
          0                 1           2             4    6     1       0.1418920112E+01       4    6    1         0.7718312680E+02      0.8132085264E+02
          0                 2           2             4    6     1       0.2373298011E+00       4    6    1         0.1303023113E+02      0.1632038057E+02
          0                 3           2             4    6     1       0.1091770294E+00       4    6    1         0.5861403708E+01      0.9343011618E+01
          0                 4           2             5    7     1      -0.6728268207E-01       5    8    1        -0.3869751675E+01      0.8646661843E+01
          0                 5           2             4    7     1      -0.1504660668E-01       4    7    1        -0.8819355607E+00      0.1074220953E+01
          0                 6           2             4    7     1      -0.4248194523E-02       4    7    1        -0.2489526161E+00      0.2890879940E+00
          0                 7           2             4    7     1      -0.1197668247E-02       4    7    1        -0.7025485499E-01      0.7885835829E-01
          0                 8           2             4    7     1      -0.3372384697E-03       4    7    1        -0.1980008293E-01      0.2165285029E-01
          0                 9           1             4    7     1      -0.9486160205E-04       4    7    1        -0.5573801899E-02      0.5975255232E-02

    ------------------------------------------------
       NWT REQUIRED            9 OUTER ITERATIONS 
       AND A TOTAL OF         17 INNER ITERATIONS.
    ------------------------------------------------

 NO OUTPUT CONTROL FOR STRESS PERIOD   33   TIME STEP   13
 
 SOLVING FOR HEAD 
                                                   Max.-Head-Change                         Max.-Flux-Residual
  Residual-Control   Outer-Iter.   Inner-Iter.     Column Row Layer    Maximum-Head-Change  Column Row Layer    Maximum-Flux-Residual          L2-NORM 
          0                 1           2             5    8     1       0.1405364213E+01       5    8    1         0.7748821199E+02      0.8078625378E+02
          0                 2           2             5    8     1       0.5805348101E+00       5    8    1         0.3212341466E+02      0.3294709780E+02
          0                 3           2             5    8     1       0.2184168983E+00       5    8    1         0.1195208191E+02      0.1374815011E+02
          0                 4           2             5    8     1      -0.1755412227E+01       5    6    1        -0.1000613577E+03      0.2429821950E+03
          0                 5           2             5    8     1      -0.6343883252E+00       5    8    1        -0.3600852677E+02      0.3616250828E+02
          0                 6           2             5    8     1      -0.3719549853E+00       5    8    1        -0.2108989364E+02      0.2108996937E+02
          0                 7           2             5    8     1      -0.2180892961E+00       5    8    1        -0.1236434925E+02      0.1236445475E+02
          0                 8           2             5    8     1      -0.1278741698E+00       5    8    1        -0.7249383391E+01      0.7249450024E+01
          0                 9           2             5    8     1      -0.7497781455E-01       5    8    1        -0.4250490939E+01      0.4250530277E+01
          0                10           2             5    8     1      -0.4396250276E-01       5    8    1        -0.2492184025E+01      0.2492207124E+01
                                                   Max.-Head-Change                         Max.-Flux-Residual
  Residual-Control   Outer-Iter.   Inner-Iter.     Column Row Layer    Maximum-Head-Change  Column Row Layer    Maximum-Flux-Residual          L2-NORM 
          0                11           2             5    8     1      -0.2577689889E-01       5    8    1        -0.1461240293E+01      0.1461253846E+01
          0                12           2             5    8     1      -0.1511391373E-01       5    8    1        -0.8567661242E+00      0.8567740734E+00
          0                13           2             5    8     1      -0.8861777856E-02       5    8    1        -0.5023440133E+00      0.5023486751E+00
          0                14           1             5    8     1      -0.5195917138E-02       5    8    1        -0.2945357340E+00      0.2945384676E+00
          0                15           1             5    8     1      -0.3046497927E-02       5    8    1        -0.1726920278E+00      0.1726936307E+00
          0                16           1             5    8     1      -0.1786227607E-02       5    8    1        -0.1012520807E+00      0.1012530205E+00
          0                17           1             5    8     1      -0.1047297109E-02       5    8    1        -0.5936533155E-01      0.5936588258E-01
          0                18           1             5    8     1      -0.6140449783E-03       5    8    1        -0.3480639589E-01      0.3480671896E-01
          0                19           1             5    8     1      -0.3600208232E-03       5    8    1        -0.2040715190E-01      0.2040734132E-01
          0                20           1             5    8     1      -0.2110824888E-03       5    8    1        -0.1196473001E-01      0.1196484107E-01
                                                   Max.-Head-Change                         Max.-Flux-Residual
  Residual-Control   Outer-Iter.   Inner-Iter.     Column Row Layer    Maximum-Head-Change  Column Row Layer    Maximum-Flux-Residual          L2-NORM 
          0                21           1             5    8     1      -0.1237581858E-03       5    8    1        -0.7014885088E-02      0.7014950253E-02
          0                22           1             5    8     1      -0.7255925335E-04       5    8    1        -0.4112778927E-02      0.4112817167E-02

    ------------------------------------------------
       NWT REQUIRED           22 OUTER ITERATIONS 
       AND A TOTAL OF         35 INNER ITERATIONS.
    ------------------------------------------------

 NO OUTPUT CONTROL FOR STRESS PERIOD   33   TIME STEP   14
 
 SOLVING FOR HEAD 
                                                   Max.-Head-Change                         Max.-Flux-Residual
  Residual-Control   Outer-Iter.   Inner-Iter.     Column Row Layer    Maximum-Head-Change  Column Row Layer    Maximum-Flux-Residual          L2-NORM 
          0                 1           2             5    8     1       0.8518834592E+00       5    8    1         0.4688576875E+02      0.5419804665E+02
          0                 2           2             5    8     1       0.1689172928E+00       5    8    1         0.9438396388E+01      0.1424308011E+02
          0                 3           2             5    8     1       0.1045736207E+00       5    8    1         0.5667481285E+01      0.9479168050E+01
          0                 4           2             4    7     1      -0.6820707962E-01       5    6    1        -0.3869711803E+01      0.8899687585E+01
          0                 5           2             5    8     1      -0.1176432120E-01       5    8    1        -0.6684736938E+00      0.6771310257E+00
          0                 6           1             5    8     1      -0.3525685694E-02       5    8    1        -0.1999110955E+00      0.1999153984E+00
          0                 7           1             5    8     1      -0.1056599114E-02       5    8    1        -0.5990122879E-01      0.5990314711E-01
          0                 8           1             5    8     1      -0.3166410760E-03       5    8    1        -0.1795064721E-01      0.1795136206E-01
          0                 9           1             5    8     1      -0.9488875147E-04       5    8    1        -0.5379257193E-02      0.5379477644E-02

    ------------------------------------------------
       NWT REQUIRED            9 OUTER ITERATIONS 
       AND A TOTAL OF         14 INNER ITERATIONS.
    ------------------------------------------------

 NO OUTPUT CONTROL FOR STRESS PERIOD   33   TIME STEP   15
 
 SOLVING FOR HEAD 
                                                   Max.-Head-Change                         Max.-Flux-Residual
  Residual-Control   Outer-Iter.   Inner-Iter.     Column Row Layer    Maximum-Head-Change  Column Row Layer    Maximum-Flux-Residual          L2-NORM 
          0                 1           2             5    8     1       0.1643335246E+01       5    8    1         0.8985348478E+02      0.1168999393E+03
          0                 2           2             5    8     1       0.6577849577E+00       5    8    1         0.3607478931E+02      0.4157301595E+02
          0                 3           2             5    8     1       0.2415875659E+00       5    8    1         0.1317344661E+02      0.1803536206E+02
          0                 4           2             4    7     1      -0.1824153832E+01       4    6    1        -0.1000493694E+03      0.2404312011E+03
          0                 5           2             4    7     1      -0.7835582432E+00       4    7    1        -0.4298378467E+02      0.7410360528E+02
          0                 6           2             5    8     1      -0.3275418437E+00       5    8    1        -0.1857091699E+02      0.2119420064E+02
          0                 7           2             5    8     1      -0.1920293760E+00       5    8    1        -0.1088962212E+02      0.1124132355E+02
          0                 8           2             5    8     1      -0.1125790330E+00       5    8    1        -0.6383300069E+01      0.6437738011E+01
          0                 9           2             5    8     1      -0.6599950915E-01       5    8    1        -0.3742274583E+01      0.3750686474E+01
          0                10           2             5    8     1      -0.3869184174E-01       5    8    1        -0.2193858426E+01      0.2195162003E+01
                                                   Max.-Head-Change                         Max.-Flux-Residual
  Residual-Control   Outer-Iter.   Inner-Iter.     Column Row Layer    Maximum-Head-Change  Column Row Layer    Maximum-Flux-Residual          L2-NORM 
          0                11           2             5    8     1      -0.2268269041E-01       5    8    1        -0.1286113845E+01      0.1286318195E+01
          0                12           2             5    8     1      -0.1329739650E-01       5    8    1        -0.7539576960E+00      0.7539907521E+00
          0                13           2             5    8     1      -0.7795352164E-02       5    8    1        -0.4419892745E+00      0.4419950946E+00
          0                14           1             5    8     1      -0.4569850526E-02       5    8    1        -0.2591037549E+00      0.2591050114E+00
          0                15           1             5    8     1      -0.2678954916E-02       5    8    1        -0.1518913038E+00      0.1518916870E+00
          0                16           1             5    8     1      -0.1570456717E-02       5    8    1        -0.8904085501E-01      0.8904101863E-01
          0                17           1             5    8     1      -0.9206269645E-03       5    8    1        -0.5219668493E-01      0.5219676944E-01
          0                18           1             5    8     1      -0.5396827772E-03       5    8    1        -0.3059804594E-01      0.3059809311E-01
          0                19           1             5    8     1      -0.3163665591E-03       5    8    1        -0.1793666191E-01      0.1793668902E-01
          0                20           1             5    8     1      -0.1854555027E-03       5    8    1        -0.1051445345E-01      0.1051446920E-01
                                                   Max.-Head-Change                         Max.-Flux-Residual
  Residual-Control   Outer-Iter.   Inner-Iter.     Column Row Layer    Maximum-Head-Change  Column Row Layer    Maximum-Flux-Residual          L2-NORM 
          0                21           1             5    8     1      -0.1087141353E-03       5    8    1        -0.6163521676E-02      0.6163530872E-02
          0                22           1             5    8     1      -0.6372787621E-04       5    8    1        -0.3613002766E-02      0.3613008147E-02

    ------------------------------------------------
       NWT REQUIRED           22 OUTER ITERATIONS 
       AND A TOTAL OF         35 INNER ITERATIONS.
    ------------------------------------------------

 NO OUTPUT CONTROL FOR STRESS PERIOD   33   TIME STEP   16
 
 SOLVING FOR HEAD 
                                                   Max.-Head-Change                         Max.-Flux-Residual
  Residual-Control   Outer-Iter.   Inner-Iter.     Column Row Layer    Maximum-Head-Change  Column Row Layer    Maximum-Flux-Residual          L2-NORM 
          0                 1           2             4    8     1       0.7507233014E+00       4    8    1         0.4021140271E+02      0.6149642113E+02
          0                 2           2             4    8     1       0.3732883530E+00       4    8    1         0.2018554109E+02      0.2368648532E+02
          0                 3           2             4    8     1       0.2773799929E+00       4    8    1         0.1494020059E+02      0.1884256281E+02
          0                 4           2             4    8     1       0.9269433729E-01       4    8    1         0.5096612605E+01      0.7441456569E+01
          0                 5           2             4    8     1       0.5395392334E-01       4    8    1         0.2943912647E+01      0.3104585038E+01
          0                 6           2             4    8     1       0.3156857226E-01       4    8    1         0.1714384368E+01      0.1726910528E+01
          0                 7           2             4    8     1       0.1849076789E-01       4    8    1         0.1003351112E+01      0.1006299730E+01
          0                 8           2             4    8     1       0.1083662927E-01       4    8    1         0.5877588000E+00      0.5889804111E+00
          0                 9           2             4    8     1       0.6352651847E-02       4    8    1         0.3444768107E+00      0.3451633778E+00
          0                10           2             4    8     1       0.3724579407E-02       4    8    1         0.2019425925E+00      0.2023558896E+00
                                                   Max.-Head-Change                         Max.-Flux-Residual
  Residual-Control   Outer-Iter.   Inner-Iter.     Column Row Layer    Maximum-Head-Change  Column Row Layer    Maximum-Flux-Residual          L2-NORM 
          0                11           2             4    8     1       0.2183899650E-02       4    8    1         0.1184006184E+00      0.1186496311E+00
          0                12           2             4    8     1       0.1280578273E-02       4    8    1         0.6942430036E-01      0.6957294060E-01
          0                13           2             4    8     1       0.7509124661E-03       4    8    1         0.4070859418E-01      0.4079668788E-01
          0                14           2             4    8     1       0.4403294645E-03       4    8    1         0.2387096151E-01      0.2392296707E-01
          0                15           2             4    8     1       0.2582075852E-03       4    8    1         0.1399776458E-01      0.1402841683E-01
          0                16           2             4    8     1       0.1514125053E-03       4    8    1         0.8208241402E-02      0.8226305065E-02
          0                17           1             4    8     1       0.8878821072E-04       4    8    1         0.4813300476E-02      0.4823952753E-02

    ------------------------------------------------
       NWT REQUIRED           17 OUTER ITERATIONS 
       AND A TOTAL OF         33 INNER ITERATIONS.
    ------------------------------------------------

 NO OUTPUT CONTROL FOR STRESS PERIOD   33   TIME STEP   17
 
 SOLVING FOR HEAD 
                                                   Max.-Head-Change                         Max.-Flux-Residual
  Residual-Control   Outer-Iter.   Inner-Iter.     Column Row Layer    Maximum-Head-Change  Column Row Layer    Maximum-Flux-Residual          L2-NORM 
          0                 1           2             5    6     1       0.1809693805E+01       5    6    1         0.9827978372E+02      0.1766648541E+03
          0                 2           2             4    7     1       0.7155807794E+00       4    7    1         0.3826485744E+02      0.6244846197E+02
          0                 3           2             4    7     1       0.4815472034E+00       4    7    1         0.2579573640E+02      0.3463564117E+02
          0                 4           2             4    8     1      -0.1804057811E+01       4    8    1        -0.9801054450E+02      0.2337645832E+03
          0                 5           2             4    6     1      -0.9545228370E+00       4    6    1        -0.5230419097E+02      0.9466414459E+02
          0                 6           2             4    7     1      -0.5576375111E+00       4    7    1        -0.3093972490E+02      0.3862551837E+02
          0                 7           2             4    7     1      -0.3342654384E+00       4    7    1        -0.1858689260E+02      0.2144550409E+02
          0                 8           2             4    7     1      -0.1996294320E+00       4    7    1        -0.1113736033E+02      0.1249190853E+02
          0                 9           2             4    7     1      -0.1191090436E+00       4    7    1        -0.6648772513E+01      0.7405329640E+01
          0                10           2             4    7     1      -0.7104018463E-01       4    7    1        -0.3966668634E+01      0.4400100649E+01
                                                   Max.-Head-Change                         Max.-Flux-Residual
  Residual-Control   Outer-Iter.   Inner-Iter.     Column Row Layer    Maximum-Head-Change  Column Row Layer    Maximum-Flux-Residual          L2-NORM 
          0                11           2             4    7     1      -0.4236221981E-01       4    7    1        -0.2365718914E+01      0.2615937190E+01
          0                12           2             4    7     1      -0.2525849940E-01       4    7    1        -0.1410662254E+01      0.1555458358E+01
          0                13           2             4    7     1      -0.1505949872E-01       4    7    1        -0.8410869468E+00      0.9249457633E+00
          0                14           2             4    7     1      -0.8978376875E-02       4    7    1        -0.5014582672E+00      0.5500404110E+00
          0                15           2             4    7     1      -0.5352722555E-02       4    7    1        -0.2989606504E+00      0.3271097854E+00
          0                16           2             4    7     1      -0.3191125773E-02       4    7    1        -0.1782310471E+00      0.1945422062E+00
          0                17           1             4    7     1      -0.1902421712E-02       4    7    1        -0.1062539873E+00      0.1157059896E+00
          0                18           1             4    7     1      -0.1134133248E-02       4    7    1        -0.6334333646E-01      0.6882076462E-01
          0                19           1             4    7     1      -0.6761081628E-03       4    7    1        -0.3776166391E-01      0.4093591392E-01
          0                20           1             4    7     1      -0.4030540597E-03       4    7    1        -0.2251107094E-01      0.2435064075E-01
                                                   Max.-Head-Change                         Max.-Flux-Residual
  Residual-Control   Outer-Iter.   Inner-Iter.     Column Row Layer    Maximum-Head-Change  Column Row Layer    Maximum-Flux-Residual          L2-NORM 
          0                21           1             4    7     1      -0.2402733329E-03       4    7    1        -0.1341949698E-01      0.1448560689E-01
          0                22           1             4    7     1      -0.1432329963E-03       4    7    1        -0.7999659124E-02      0.8617531076E-02
          0                23           1             4    7     1      -0.8538387715E-04       4    7    1        -0.4768721577E-02      0.5126823118E-02

    ------------------------------------------------
       NWT REQUIRED           23 OUTER ITERATIONS 
       AND A TOTAL OF         39 INNER ITERATIONS.
    ------------------------------------------------

 NO OUTPUT CONTROL FOR STRESS PERIOD   33   TIME STEP   18
 
 SOLVING FOR HEAD 
                                                   Max.-Head-Change                         Max.-Flux-Residual
  Residual-Control   Outer-Iter.   Inner-Iter.     Column Row Layer    Maximum-Head-Change  Column Row Layer    Maximum-Flux-Residual          L2-NORM 
          0                 1           2             4    7     1       0.1324980055E+01       4    7    1         0.7006700093E+02      0.1196305795E+03
          0                 2           2             4    8     1       0.4661452771E+00       4    8    1         0.2499715500E+02      0.3867902030E+02
          0                 3           2             4    8     1       0.3334327673E+00       4    8    1         0.1791359079E+02      0.2605766281E+02
          0                 4           2             4    8     1       0.1261226034E+00       4    8    1         0.6887072694E+01      0.8249076373E+01
          0                 5           2             4    8     1       0.7363717389E-01       4    8    1         0.4006058831E+01      0.4542805393E+01
          0                 6           2             4    8     1       0.4309660011E-01       4    8    1         0.2340006282E+01      0.2612548618E+01
          0                 7           2             4    8     1       0.2525386678E-01       4    8    1         0.1369824511E+01      0.1522728910E+01
          0                 8           2             4    8     1       0.1480774059E-01       4    8    1         0.8027822600E+00      0.8910693699E+00
          0                 9           2             4    8     1       0.8685407888E-02       4    8    1         0.4707332190E+00      0.5220868247E+00
          0                10           2             4    8     1       0.5095277908E-02       4    8    1         0.2761118827E+00      0.3060363487E+00
                                                   Max.-Head-Change                         Max.-Flux-Residual
  Residual-Control   Outer-Iter.   Inner-Iter.     Column Row Layer    Maximum-Head-Change  Column Row Layer    Maximum-Flux-Residual          L2-NORM 
          0                11           2             4    8     1       0.2989417234E-02       4    8    1         0.1619822971E+00      0.1794271115E+00
          0                12           2             4    8     1       0.1753989175E-02       4    8    1         0.9503614207E-01      0.1052075961E+00
          0                13           2             4    8     1       0.1029149490E-02       4    8    1         0.5576099935E-01      0.6169268100E-01
          0                14           2             4    8     1       0.6038588688E-03       4    8    1         0.3271770376E-01      0.3617763444E-01
          0                15           2             4    8     1       0.3543192453E-03       4    8    1         0.1919730004E-01      0.2121596077E-01
          0                16           2             4    8     1       0.2079000788E-03       4    8    1         0.1126418046E-01      0.1244224877E-01
          0                17           2             4    8     1       0.1219872054E-03       4    8    1         0.6609362305E-02      0.7297046141E-02
          0                18           1             4    8     1       0.7157697209E-04       4    8    1         0.3878101562E-02      0.4279629254E-02

    ------------------------------------------------
       NWT REQUIRED           18 OUTER ITERATIONS 
       AND A TOTAL OF         35 INNER ITERATIONS.
    ------------------------------------------------

 NO OUTPUT CONTROL FOR STRESS PERIOD   33   TIME STEP   19
 
 SOLVING FOR HEAD 
                                                   Max.-Head-Change                         Max.-Flux-Residual
  Residual-Control   Outer-Iter.   Inner-Iter.     Column Row Layer    Maximum-Head-Change  Column Row Layer    Maximum-Flux-Residual          L2-NORM 
          0                 1           2             5    8     1       0.1743380667E+01       5    8    1         0.9479444386E+02      0.1693549289E+03
          0                 2           2             4    7     1       0.7675755313E+00       4    7    1         0.4108947211E+02      0.6218369607E+02
          0                 3           2             4    7     1       0.4059465466E+00       4    7    1         0.2166080468E+02      0.3221851270E+02
          0                 4           2             4    8     1      -0.1808352032E+01       4    8    1        -0.9822413888E+02      0.2341669746E+03
          0                 5           2             4    6     1      -0.1012837066E+01       4    6    1        -0.5562753392E+02      0.9454664414E+02
          0                 6           2             4    7     1      -0.5169449860E+00       4    7    1        -0.2849835636E+02      0.3738169743E+02
          0                 7           2             4    7     1      -0.3091443967E+00       4    7    1        -0.1724236859E+02      0.1932483746E+02
          0                 8           2             4    7     1      -0.1845928365E+00       4    7    1        -0.1029729534E+02      0.1129101548E+02
          0                 9           2             4    7     1      -0.1101361531E+00       4    7    1        -0.6148019838E+01      0.6691437049E+01
          0                10           2             4    7     1      -0.6568547344E-01       4    7    1        -0.3667836842E+01      0.3977151806E+01
                                                   Max.-Head-Change                         Max.-Flux-Residual
  Residual-Control   Outer-Iter.   Inner-Iter.     Column Row Layer    Maximum-Head-Change  Column Row Layer    Maximum-Flux-Residual          L2-NORM 
          0                11           2             4    7     1      -0.3916666719E-01       4    7    1        -0.2187389480E+01      0.2365616225E+01
          0                12           2             4    7     1      -0.2335148199E-01       4    7    1        -0.1304241372E+01      0.1407326244E+01
          0                13           2             4    7     1      -0.1392145691E-01       4    7    1        -0.7775789238E+00      0.8372787429E+00
          0                14           2             4    7     1      -0.8299244121E-02       4    7    1        -0.4635595111E+00      0.4981504836E+00
          0                15           2             4    7     1      -0.4947453881E-02       4    7    1        -0.2763447405E+00      0.2963916073E+00
          0                16           2             4    7     1      -0.2949288724E-02       4    7    1        -0.1647353597E+00      0.1763546511E+00
          0                17           1             4    7     1      -0.1758112557E-02       4    7    1        -0.9820080795E-01      0.1049359014E+00
          0                18           1             4    7     1      -0.1048022744E-02       4    7    1        -0.5853792068E-01      0.6244210382E-01
          0                19           1             4    7     1      -0.6247263266E-03       4    7    1        -0.3489428044E-01      0.3715754638E-01
          0                20           1             4    7     1      -0.3723953136E-03       4    7    1        -0.2080014260E-01      0.2211221632E-01
                                                   Max.-Head-Change                         Max.-Flux-Residual
  Residual-Control   Outer-Iter.   Inner-Iter.     Column Row Layer    Maximum-Head-Change  Column Row Layer    Maximum-Flux-Residual          L2-NORM 
          0                21           1             4    7     1      -0.2219800960E-03       4    7    1        -0.1239862996E-01      0.1315930225E-01
          0                22           1             4    7     1      -0.1323181361E-03       4    7    1        -0.7390546070E-02      0.7831561380E-02
          0                23           1             4    7     1      -0.7887153211E-04       4    7    1        -0.4405293790E-02      0.4660991443E-02

    ------------------------------------------------
       NWT REQUIRED           23 OUTER ITERATIONS 
       AND A TOTAL OF         39 INNER ITERATIONS.
    ------------------------------------------------

 NO OUTPUT CONTROL FOR STRESS PERIOD   33   TIME STEP   20
 
 SOLVING FOR HEAD 
                                                   Max.-Head-Change                         Max.-Flux-Residual
  Residual-Control   Outer-Iter.   Inner-Iter.     Column Row Layer    Maximum-Head-Change  Column Row Layer    Maximum-Flux-Residual          L2-NORM 
          0                 1           2             4    6     1       0.1415119757E+01       4    6    1         0.7598153968E+02      0.1191742567E+03
          0                 2           2             4    8     1       0.4513253228E+00       4    8    1         0.2424357566E+02      0.3964846861E+02
          0                 3           2             4    8     1       0.3244077581E+00       4    8    1         0.1743748009E+02      0.2688940572E+02
          0                 4           2             4    8     1       0.1207434431E+00       4    8    1         0.6598837864E+01      0.8622074306E+01
          0                 5           2             4    8     1       0.7046330838E-01       4    8    1         0.3834812560E+01      0.4749174869E+01
          0                 6           2             4    8     1       0.4123193321E-01       4    8    1         0.2239047768E+01      0.2731281814E+01
          0                 7           2             4    8     1       0.2416075037E-01       4    8    1         0.1310535034E+01      0.1591893428E+01
          0                 8           2             4    8     1       0.1416764189E-01       4    8    1         0.7680323060E+00      0.9315149689E+00
          0                 9           2             4    8     1       0.8310794482E-02       4    8    1         0.4503858821E+00      0.5457678817E+00
          0                10           2             4    8     1       0.4876105741E-02       4    8    1         0.2642041499E+00      0.3199075911E+00
                                                   Max.-Head-Change                         Max.-Flux-Residual
  Residual-Control   Outer-Iter.   Inner-Iter.     Column Row Layer    Maximum-Head-Change  Column Row Layer    Maximum-Flux-Residual          L2-NORM 
          0                11           2             4    8     1       0.2861209952E-02       4    8    1         0.1550156628E+00      0.1875533906E+00
          0                12           2             4    8     1       0.1679000146E-02       4    8    1         0.9096097165E-01      0.1099682426E+00
          0                13           2             4    8     1       0.9852905252E-03       4    8    1         0.5337742737E-01      0.6448145256E-01
          0                14           2             4    8     1       0.5782078607E-03       4    8    1         0.3132362451E-01      0.3781114982E-01
          0                15           2             4    8     1       0.3393175159E-03       4    8    1         0.1838197147E-01      0.2217270090E-01
          0                16           2             4    8     1       0.1991265962E-03       4    8    1         0.1078734448E-01      0.1300255454E-01
          0                17           2             4    8     1       0.1168562501E-03       4    8    1         0.6330493854E-02      0.7625154671E-02
          0                18           1             4    8     1       0.6857628136E-04       4    8    1         0.3715012310E-02      0.4471749842E-02

    ------------------------------------------------
       NWT REQUIRED           18 OUTER ITERATIONS 
       AND A TOTAL OF         35 INNER ITERATIONS.
    ------------------------------------------------

 NO OUTPUT CONTROL FOR STRESS PERIOD   33   TIME STEP   21
 
 SOLVING FOR HEAD 
                                                   Max.-Head-Change                         Max.-Flux-Residual
  Residual-Control   Outer-Iter.   Inner-Iter.     Column Row Layer    Maximum-Head-Change  Column Row Layer    Maximum-Flux-Residual          L2-NORM 
          0                 1           2             5    8     1       0.1787888333E+01       5    8    1         0.9746794308E+02      0.1647317838E+03
          0                 2           2             4    7     1       0.8144432639E+00       4    7    1         0.4365936398E+02      0.6231994953E+02
          0                 3           2             4    6     1       0.3294744640E+00       4    6    1         0.1759328741E+02      0.2942891387E+02
          0                 4           2             4    8     1      -0.1812037477E+01       4    8    1        -0.9840951417E+02      0.2346791481E+03
          0                 5           2             4    6     1      -0.1001260094E+01       4    6    1        -0.5503605178E+02      0.9069519730E+02
          0                 6           2             4    6     1      -0.5311310677E+00       4    6    1        -0.2924623109E+02      0.4267619980E+02
          0                 7           2             4    7     1      -0.2840922623E+00       4    7    1        -0.1585391682E+02      0.1760458011E+02
          0                 8           2             4    7     1      -0.1696467839E+00       4    7    1        -0.9462371364E+01      0.1018486949E+02
          0                 9           2             4    7     1      -0.1012186392E+00       4    7    1        -0.5650150478E+01      0.6031885164E+01
          0                10           2             4    7     1      -0.6036466486E-01       4    7    1        -0.3370789679E+01      0.3585762775E+01
                                                   Max.-Head-Change                         Max.-Flux-Residual
  Residual-Control   Outer-Iter.   Inner-Iter.     Column Row Layer    Maximum-Head-Change  Column Row Layer    Maximum-Flux-Residual          L2-NORM 
          0                11           2             4    7     1      -0.3599187017E-01       4    7    1        -0.2010152546E+01      0.2133629822E+01
          0                12           2             4    7     1      -0.2145716543E-01       4    7    1        -0.1198490125E+01      0.1269850879E+01
          0                13           2             4    7     1      -0.1279118171E-01       4    7    1        -0.7144810552E+00      0.7558067702E+00
          0                14           2             4    7     1      -0.7624857010E-02       4    7    1        -0.4259117912E+00      0.4498622573E+00
          0                15           2             4    7     1      -0.4545082635E-02       4    7    1        -0.2538823497E+00      0.2677675651E+00
          0                16           2             4    7     1      -0.2709219298E-02       4    7    1        -0.1513334760E+00      0.1593847806E+00
          0                17           1             4    7     1      -0.1614880953E-02       4    7    1        -0.9020489729E-01      0.9487391927E-01
          0                18           1             4    7     1      -0.9625686421E-03       4    7    1        -0.5376744032E-01      0.5647525339E-01
          0                19           1             4    7     1      -0.5737440703E-03       4    7    1        -0.3204819224E-01      0.3361869445E-01
          0                20           1             4    7     1      -0.3419796478E-03       4    7    1        -0.1910218559E-01      0.2001311093E-01
                                                   Max.-Head-Change                         Max.-Flux-Residual
  Residual-Control   Outer-Iter.   Inner-Iter.     Column Row Layer    Maximum-Head-Change  Column Row Layer    Maximum-Flux-Residual          L2-NORM 
          0                21           1             4    7     1      -0.2038346439E-03       4    7    1        -0.1138565858E-01      0.1191404328E-01
          0                22           1             4    7     1      -0.1214930695E-03       4    7    1        -0.6786235913E-02      0.7092743027E-02
          0                23           1             4    7     1      -0.7241371582E-04       4    7    1        -0.4044785787E-02      0.4222594837E-02

    ------------------------------------------------
       NWT REQUIRED           23 OUTER ITERATIONS 
       AND A TOTAL OF         39 INNER ITERATIONS.
    ------------------------------------------------

 NO OUTPUT CONTROL FOR STRESS PERIOD   33   TIME STEP   22
 
 SOLVING FOR HEAD 
                                                   Max.-Head-Change                         Max.-Flux-Residual
  Residual-Control   Outer-Iter.   Inner-Iter.     Column Row Layer    Maximum-Head-Change  Column Row Layer    Maximum-Flux-Residual          L2-NORM 
          0                 1           2             4    6     1       0.1399809771E+01       4    6    1         0.7518095388E+02      0.1156722665E+03
          0                 2           2             4    8     1       0.4394088150E+00       4    8    1         0.2364478568E+02      0.4012696289E+02
          0                 3           2             4    8     1       0.3170999650E+00       4    8    1         0.1705392941E+02      0.2760037902E+02
          0                 4           2             4    8     1       0.1163738676E+00       4    8    1         0.6365248090E+01      0.9125264123E+01
          0                 5           2             4    8     1       0.6788158603E-01       4    8    1         0.3695668370E+01      0.5026046872E+01
          0                 6           2             4    8     1       0.3971427312E-01       4    8    1         0.2156914368E+01      0.2890140056E+01
          0                 7           2             4    8     1       0.2327091439E-01       4    8    1         0.1262276583E+01      0.1684264571E+01
          0                 8           2             4    8     1       0.1364661205E-01       4    8    1         0.7397445088E+00      0.9854461033E+00
          0                 9           2             4    8     1       0.8005919190E-02       4    8    1         0.4338236381E+00      0.5772955809E+00
          0                10           2             4    8     1       0.4697777637E-02       4    8    1         0.2545133218E+00      0.3383468529E+00
                                                   Max.-Head-Change                         Max.-Flux-Residual
  Residual-Control   Outer-Iter.   Inner-Iter.     Column Row Layer    Maximum-Head-Change  Column Row Layer    Maximum-Flux-Residual          L2-NORM 
          0                11           2             4    8     1       0.2756923670E-02       4    8    1         0.1493474186E+00      0.1983394053E+00
          0                12           2             4    8     1       0.1618020628E-02       4    8    1         0.8764622406E-01      0.1162777488E+00
          0                13           2             4    8     1       0.9496362187E-03       4    8    1         0.5143920233E-01      0.6817231136E-01
          0                14           2             4    8     1       0.5573618362E-03       4    8    1         0.3019036211E-01      0.3997013413E-01
          0                15           2             4    8     1       0.3271297422E-03       4    8    1         0.1771938777E-01      0.2343557032E-01
          0                16           2             4    8     1       0.1920010349E-03       4    8    1         0.1039996082E-01      0.1374122978E-01
          0                17           2             4    8     1       0.1126903448E-03       4    8    1         0.6104010827E-02      0.8057205804E-02
          0                18           1             4    8     1       0.6614072165E-04       4    8    1         0.3582600792E-02      0.4724448701E-02

    ------------------------------------------------
       NWT REQUIRED           18 OUTER ITERATIONS 
       AND A TOTAL OF         35 INNER ITERATIONS.
    ------------------------------------------------

 NO OUTPUT CONTROL FOR STRESS PERIOD   33   TIME STEP   23
 
 SOLVING FOR HEAD 
                                                   Max.-Head-Change                         Max.-Flux-Residual
  Residual-Control   Outer-Iter.   Inner-Iter.     Column Row Layer    Maximum-Head-Change  Column Row Layer    Maximum-Flux-Residual          L2-NORM 
          0                 1           2             5    8     1       0.1827098988E+01       5    8    1         0.9982135920E+02      0.1625055905E+03
          0                 2           2             4    7     1       0.7790336932E+00       4    7    1         0.4175000997E+02      0.6007417214E+02
          0                 3           2             4    6     1       0.3591892221E+00       4    6    1         0.1924607979E+02      0.2895868726E+02
          0                 4           2             4    8     1      -0.1814890811E+01       4    8    1        -0.9856007857E+02      0.2347977317E+03
          0                 5           2             4    6     1      -0.9903452170E+00       4    6    1        -0.5448251754E+02      0.8654091311E+02
          0                 6           2             4    6     1      -0.5982551280E+00       4    6    1        -0.3304112524E+02      0.4382247467E+02
          0                 7           2             4    7     1      -0.2600449704E+00       4    7    1        -0.1439298387E+02      0.1688506944E+02
          0                 8           2             4    7     1      -0.1553000788E+00       4    7    1        -0.8669176250E+01      0.9086164889E+01
          0                 9           2             4    7     1      -0.9265742428E-01       4    7    1        -0.5172143082E+01      0.5362888335E+01
          0                10           2             4    7     1      -0.5525553559E-01       4    7    1        -0.3085683505E+01      0.3188868166E+01
                                                   Max.-Head-Change                         Max.-Flux-Residual
  Residual-Control   Outer-Iter.   Inner-Iter.     Column Row Layer    Maximum-Head-Change  Column Row Layer    Maximum-Flux-Residual          L2-NORM 
          0                11           2             4    7     1      -0.3294278494E-01       4    7    1        -0.1840007799E+01      0.1898558392E+01
          0                12           2             4    7     1      -0.1963749423E-01       4    7    1        -0.1096950530E+01      0.1130681115E+01
          0                13           2             4    7     1      -0.1170522752E-01       4    7    1        -0.6538839003E+00      0.6734132611E+00
          0                14           2             4    7     1      -0.6976786154E-02       4    7    1        -0.3897488441E+00      0.4010766353E+00
          0                15           2             4    7     1      -0.4158337854E-02       4    7    1        -0.2323015480E+00      0.2388771498E+00
          0                16           1             4    7     1      -0.2478429433E-02       4    7    1        -0.1384550673E+00      0.1422735386E+00
          0                17           1             4    7     1      -0.1477160319E-02       4    7    1        -0.8251984052E-01      0.8473772055E-01
          0                18           1             4    7     1      -0.8803876820E-03       4    7    1        -0.4918156816E-01      0.5046996645E-01
          0                19           1             4    7     1      -0.5247060029E-03       4    7    1        -0.2931174725E-01      0.3006028060E-01
          0                20           1             4    7     1      -0.3127188953E-03       4    7    1        -0.1746935383E-01      0.1790427846E-01
                                                   Max.-Head-Change                         Max.-Flux-Residual
  Residual-Control   Outer-Iter.   Inner-Iter.     Column Row Layer    Maximum-Head-Change  Column Row Layer    Maximum-Flux-Residual          L2-NORM 
          0                21           1             4    7     1      -0.1863753069E-03       4    7    1        -0.1041137324E-01      0.1066410234E-01
          0                22           1             4    7     1      -0.1110756486E-03       4    7    1        -0.6204908215E-02      0.6351778331E-02
          0                23           1             4    7     1      -0.6619811615E-04       4    7    1        -0.3697932277E-02      0.3783291006E-02

    ------------------------------------------------
       NWT REQUIRED           23 OUTER ITERATIONS 
       AND A TOTAL OF         38 INNER ITERATIONS.
    ------------------------------------------------

 NO OUTPUT CONTROL FOR STRESS PERIOD   33   TIME STEP   24
 
 SOLVING FOR HEAD 
                                                   Max.-Head-Change                         Max.-Flux-Residual
  Residual-Control   Outer-Iter.   Inner-Iter.     Column Row Layer    Maximum-Head-Change  Column Row Layer    Maximum-Flux-Residual          L2-NORM 
          0                 1           2             4    6     1       0.1385551740E+01       4    6    1         0.7444547335E+02      0.1131132307E+03
          0                 2           2             4    8     1       0.4297056102E+00       4    8    1         0.2316284762E+02      0.4086372600E+02
          0                 3           2             4    8     1       0.3111108143E+00       4    8    1         0.1674105240E+02      0.2832321324E+02
          0                 4           2             4    8     1       0.1127828178E+00       4    8    1         0.6173660625E+01      0.9663816236E+01
          0                 5           2             4    8     1       0.6575750603E-01       4    8    1         0.3581288741E+01      0.5326860855E+01
          0                 6           2             4    8     1       0.3846512443E-01       4    8    1         0.2089333279E+01      0.3063550943E+01
          0                 7           2             4    8     1       0.2253846867E-01       4    8    1         0.1222554852E+01      0.1785215330E+01
          0                 8           2             4    8     1       0.1321779172E-01       4    8    1         0.7164601883E+00      0.1044390731E+01
          0                 9           2             4    8     1       0.7755052014E-02       4    8    1         0.4201926758E+00      0.6117450676E+00
          0                10           2             4    8     1       0.4551077931E-02       4    8    1         0.2465393503E+00      0.3584874649E+00
                                                   Max.-Head-Change                         Max.-Flux-Residual
  Residual-Control   Outer-Iter.   Inner-Iter.     Column Row Layer    Maximum-Head-Change  Column Row Layer    Maximum-Flux-Residual          L2-NORM 
          0                11           2             4    8     1       0.2671158082E-02       4    8    1         0.1446845961E+00      0.2101159101E+00
          0                12           2             4    8     1       0.1567885727E-02       4    8    1         0.8492021999E-01      0.1231639210E+00
          0                13           2             4    8     1       0.9203316558E-03       4    8    1         0.4984570936E-01      0.7219895160E-01
          0                14           2             4    8     1       0.5402336284E-03       4    8    1         0.2925894695E-01      0.4232467024E-01
          0                15           2             4    8     1       0.3171187361E-03       4    8    1         0.1717498679E-01      0.2481234532E-01
          0                16           2             4    8     1       0.1861499445E-03       4    8    1         0.1008177263E-01      0.1454626471E-01
          0                17           1             4    8     1       0.1092706079E-03       4    8    1         0.5918040906E-02      0.8527923348E-02
          0                18           1             4    8     1       0.6414203065E-04       4    8    1         0.3473909168E-02      0.4999681260E-02

    ------------------------------------------------
       NWT REQUIRED           18 OUTER ITERATIONS 
       AND A TOTAL OF         34 INNER ITERATIONS.
    ------------------------------------------------

 NO OUTPUT CONTROL FOR STRESS PERIOD   33   TIME STEP   25
 
 SOLVING FOR HEAD 
                                                   Max.-Head-Change                         Max.-Flux-Residual
  Residual-Control   Outer-Iter.   Inner-Iter.     Column Row Layer    Maximum-Head-Change  Column Row Layer    Maximum-Flux-Residual          L2-NORM 
          0                 1           2             5    8     1       0.1852759377E+01       5    8    1         0.1014038599E+03      0.1616927666E+03
          0                 2           2             4    7     1       0.7261943581E+00       4    7    1         0.3888890086E+02      0.5786455106E+02
          0                 3           2             4    6     1       0.3864285713E+00       4    6    1         0.2075135665E+02      0.2910240837E+02
          0                 4           2             4    8     1      -0.1817254740E+01       4    8    1        -0.9868677143E+02      0.2348053726E+03
          0                 5           2             4    6     1      -0.9802485120E+00       4    6    1        -0.5397263192E+02      0.8343589523E+02
          0                 6           2             4    6     1      -0.5915909811E+00       4    6    1        -0.3270118909E+02      0.4229661418E+02
          0                 7           2             4    6     1      -0.3367607343E+00       4    6    1        -0.1863806974E+02      0.2330402505E+02
          0                 8           2             4    7     1      -0.1417029407E+00       4    7    1        -0.7921671691E+01      0.8213763396E+01
          0                 9           2             4    7     1      -0.8454171547E-01       4    7    1        -0.4718852064E+01      0.4752204721E+01
          0                10           2             4    7     1      -0.5041024329E-01       4    7    1        -0.2815413602E+01      0.2823849963E+01
                                                   Max.-Head-Change                         Max.-Flux-Residual
  Residual-Control   Outer-Iter.   Inner-Iter.     Column Row Layer    Maximum-Head-Change  Column Row Layer    Maximum-Flux-Residual          L2-NORM 
          0                11           2             4    7     1      -0.3004968341E-01       4    7    1        -0.1678644409E+01      0.1681897363E+01
          0                12           2             4    7     1      -0.1790996851E-01       4    7    1        -0.1000601684E+01      0.1002189910E+01
          0                13           2             4    7     1      -0.1067368736E-01       4    7    1        -0.5963528303E+00      0.5972220461E+00
          0                14           2             4    7     1      -0.6360843536E-02       4    7    1        -0.3553963981E+00      0.3558952973E+00
          0                15           2             4    7     1      -0.3790562395E-02       4    7    1        -0.2117897077E+00      0.2120818051E+00
          0                16           1             4    7     1      -0.2258839904E-02       4    7    1        -0.1262077887E+00      0.1263803140E+00
          0                17           1             4    7     1      -0.1346053282E-02       4    7    1        -0.7520742636E-01      0.7530974595E-01
          0                18           1             4    7     1      -0.8021122388E-03       4    7    1        -0.4481573256E-01      0.4487653652E-01
          0                19           1             4    7     1      -0.4779744554E-03       4    7    1        -0.2670523903E-01      0.2674140817E-01
          0                20           1             4    7     1      -0.2848204521E-03       4    7    1        -0.1591325953E-01      0.1593478559E-01
                                                   Max.-Head-Change                         Max.-Flux-Residual
  Residual-Control   Outer-Iter.   Inner-Iter.     Column Row Layer    Maximum-Head-Change  Column Row Layer    Maximum-Flux-Residual          L2-NORM 
          0                21           1             4    7     1      -0.1697206717E-03       4    7    1        -0.9482411305E-02      0.9495225864E-02
          0                22           1             4    7     1      -0.1011336018E-03       4    7    1        -0.5650352388E-02      0.5657981983E-02
          0                23           1             4    7     1      -0.6026336917E-04       4    7    1        -0.3366894033E-02      0.3371436902E-02

    ------------------------------------------------
       NWT REQUIRED           23 OUTER ITERATIONS 
       AND A TOTAL OF         38 INNER ITERATIONS.
    ------------------------------------------------

 NO OUTPUT CONTROL FOR STRESS PERIOD   33   TIME STEP   26
 
 SOLVING FOR HEAD 
                                                   Max.-Head-Change                         Max.-Flux-Residual
  Residual-Control   Outer-Iter.   Inner-Iter.     Column Row Layer    Maximum-Head-Change  Column Row Layer    Maximum-Flux-Residual          L2-NORM 
          0                 1           2             4    6     1       0.1372334708E+01       4    6    1         0.7377135277E+02      0.1113949097E+03
          0                 2           2             5    7     1       0.4254420870E+00       5    7    1         0.2306666521E+02      0.4176308261E+02
          0                 3           2             5    7     1       0.3071199307E+00       5    7    1         0.1659215116E+02      0.2902890719E+02
          0                 4           2             4    8     1       0.1097766423E+00       5    7    1         0.6036992666E+01      0.1016075661E+02
          0                 5           2             4    8     1       0.6400351924E-01       4    8    1         0.3487660328E+01      0.5636055219E+01
          0                 6           2             4    8     1       0.3743183379E-01       4    8    1         0.2034046137E+01      0.3240848800E+01
          0                 7           2             4    8     1       0.2192934437E-01       4    8    1         0.1189789793E+01      0.1887064597E+01
          0                 8           2             4    8     1       0.1285947171E-01       4    8    1         0.6970909784E+00      0.1103425754E+01
          0                 9           2             4    8     1       0.7544776955E-02       4    8    1         0.4087835658E+00      0.6461427498E+00
          0                10           2             4    8     1       0.4427913687E-02       4    8    1         0.2398380951E+00      0.3785782601E+00
                                                   Max.-Head-Change                         Max.-Flux-Residual
  Residual-Control   Outer-Iter.   Inner-Iter.     Column Row Layer    Maximum-Head-Change  Column Row Layer    Maximum-Flux-Residual          L2-NORM 
          0                11           2             4    8     1       0.2599123048E-02       4    8    1         0.1407574970E+00      0.2218631423E+00
          0                12           2             4    8     1       0.1525799722E-02       4    8    1         0.8262271504E-01      0.1300358264E+00
          0                13           2             4    8     1       0.8957616808E-03       4    8    1         0.4850317948E-01      0.7621969657E-01
          0                14           2             4    8     1       0.5258970008E-03       4    8    1         0.2847509218E-01      0.4467741488E-01
          0                15           2             4    8     1       0.3087562289E-03       4    8    1         0.1671757611E-01      0.2618911419E-01
          0                16           2             4    8     1       0.1812732858E-03       4    8    1         0.9814954599E-02      0.1535193225E-01
          0                17           1             4    8     1       0.1064271805E-03       4    8    1         0.5762438854E-02      0.8999394163E-02
          0                18           1             4    8     1       0.6248433668E-04       4    8    1         0.3383181785E-02      0.5275583743E-02

    ------------------------------------------------
       NWT REQUIRED           18 OUTER ITERATIONS 
       AND A TOTAL OF         34 INNER ITERATIONS.
    ------------------------------------------------

 NO OUTPUT CONTROL FOR STRESS PERIOD   33   TIME STEP   27
 
 SOLVING FOR HEAD 
                                                   Max.-Head-Change                         Max.-Flux-Residual
  Residual-Control   Outer-Iter.   Inner-Iter.     Column Row Layer    Maximum-Head-Change  Column Row Layer    Maximum-Flux-Residual          L2-NORM 
          0                 1           2             5    8     1       0.1848945147E+01       5    8    1         0.1013406306E+03      0.1611828009E+03
          0                 2           2             4    7     1       0.6759938916E+00       4    7    1         0.3616816448E+02      0.5664441003E+02
          0                 3           2             4    6     1       0.4113620323E+00       4    6    1         0.2212902457E+02      0.2945830397E+02
          0                 4           2             4    8     1      -0.1819237904E+01       4    8    1        -0.9879379122E+02      0.2347719769E+03
          0                 5           2             4    6     1      -0.9711231348E+00       4    6    1        -0.5350585580E+02      0.8139577431E+02
          0                 6           2             4    6     1      -0.5854915973E+00       4    6    1        -0.3239435418E+02      0.4084449318E+02
          0                 7           2             4    6     1      -0.3521186720E+00       4    6    1        -0.1952040351E+02      0.2302698599E+02
          0                 8           2             4    6     1      -0.1581851343E+00       4    6    1        -0.8749038286E+01      0.1129193891E+02
          0                 9           2             4    7     1      -0.7598245945E-01       4    7    1        -0.4255412775E+01      0.4322495862E+01
          0                10           2             4    7     1      -0.4526395755E-01       4    7    1        -0.2529717441E+01      0.2533320522E+01
                                                   Max.-Head-Change                         Max.-Flux-Residual
  Residual-Control   Outer-Iter.   Inner-Iter.     Column Row Layer    Maximum-Head-Change  Column Row Layer    Maximum-Flux-Residual          L2-NORM 
          0                11           2             4    7     1      -0.2696380726E-01       4    7    1        -0.1507159027E+01      0.1507699203E+01
          0                12           2             4    7     1      -0.1606212933E-01       4    7    1        -0.8977990501E+00      0.8978856402E+00
          0                13           2             4    7     1      -0.9567979821E-02       4    7    1        -0.5348030947E+00      0.5348178874E+00
          0                14           1             4    7     1      -0.5699458788E-02       4    7    1        -0.3185693994E+00      0.3185722816E+00
          0                15           1             4    7     1      -0.3395030841E-02       4    7    1        -0.1897625557E+00      0.1897632643E+00
          0                16           1             4    7     1      -0.2022324402E-02       4    7    1        -0.1130352157E+00      0.1130354517E+00
          0                17           1             4    7     1      -0.1204633786E-02       4    7    1        -0.6733083939E-01      0.6733094166E-01
          0                18           1             4    7     1      -0.7175570551E-03       4    7    1        -0.4010619123E-01      0.4010624332E-01
          0                19           1             4    7     1      -0.4274202085E-03       4    7    1        -0.2388944168E-01      0.2388947047E-01
          0                20           1             4    7     1      -0.2545956007E-03       4    7    1        -0.1422976725E-01      0.1422978380E-01
                                                   Max.-Head-Change                         Max.-Flux-Residual
  Residual-Control   Outer-Iter.   Inner-Iter.     Column Row Layer    Maximum-Head-Change  Column Row Layer    Maximum-Flux-Residual          L2-NORM 
          0                21           1             4    7     1      -0.1516505446E-03       4    7    1        -0.8475919518E-02      0.8475929190E-02
          0                22           1             4    7     1      -0.9033047535E-04       4    7    1        -0.5048624733E-02      0.5048630451E-02

    ------------------------------------------------
       NWT REQUIRED           22 OUTER ITERATIONS 
       AND A TOTAL OF         35 INNER ITERATIONS.
    ------------------------------------------------

 NO OUTPUT CONTROL FOR STRESS PERIOD   33   TIME STEP   28
 
 SOLVING FOR HEAD 
                                                   Max.-Head-Change                         Max.-Flux-Residual
  Residual-Control   Outer-Iter.   Inner-Iter.     Column Row Layer    Maximum-Head-Change  Column Row Layer    Maximum-Flux-Residual          L2-NORM 
          0                 1           2             4    6     1       0.1360236206E+01       4    6    1         0.7315988085E+02      0.1096319632E+03
          0                 2           2             5    7     1       0.4328374212E+00       5    7    1         0.2348464954E+02      0.4203054286E+02
          0                 3           2             5    7     1       0.3114195379E+00       5    7    1         0.1682557710E+02      0.2932435475E+02
          0                 4           2             5    7     1       0.1120345327E+00       5    7    1         0.6173664143E+01      0.1041835747E+02
          0                 5           2             5    7     1       0.6489440366E-01       5    7    1         0.3555724385E+01      0.5777301418E+01
          0                 6           2             5    7     1       0.3772683322E-01       5    7    1         0.2060455000E+01      0.3322198587E+01
          0                 7           2             5    7     1       0.2197844619E-01       5    7    1         0.1198138718E+01      0.1934593369E+01
          0                 8           2             5    7     1       0.1281925304E-01       5    7    1         0.6980826903E+00      0.1131297989E+01
          0                 9           2             5    7     1       0.7481321800E-02       5    7    1         0.4071827357E+00      0.5959900193E+00
          0                10           2             5    7     1       0.4367018212E-02       5    7    1         0.2376368087E+00      0.3194131387E+00
                                                   Max.-Head-Change                         Max.-Flux-Residual
  Residual-Control   Outer-Iter.   Inner-Iter.     Column Row Layer    Maximum-Head-Change  Column Row Layer    Maximum-Flux-Residual          L2-NORM 
          0                11           2             5    7     1       0.2549300491E-02       5    7    1         0.1387159535E+00      0.1825736328E+00
          0                12           2             5    7     1       0.1488233054E-02       5    7    1         0.8097810901E-01      0.1062257959E+00
          0                13           2             5    7     1       0.8688314955E-03       5    7    1         0.4727403412E-01      0.6207819200E-01
          0                14           2             5    7     1       0.5072474257E-03       5    7    1         0.2759894575E-01      0.3631746387E-01
          0                15           2             5    7     1       0.2961615702E-03       5    7    1         0.1611321085E-01      0.2125241511E-01
          0                16           2             5    7     1       0.1729281411E-03       5    7    1         0.9407977338E-02      0.1243749919E-01
          0                17           1             5    7     1       0.1009794408E-03       5    7    1         0.5493365677E-02      0.7278964719E-02
          0                18           1             5    7     1       0.5897007505E-04       5    7    1         0.3207827345E-02      0.4260033628E-02

    ------------------------------------------------
       NWT REQUIRED           18 OUTER ITERATIONS 
       AND A TOTAL OF         34 INNER ITERATIONS.
    ------------------------------------------------

 NO OUTPUT CONTROL FOR STRESS PERIOD   33   TIME STEP   29
 
 SOLVING FOR HEAD 
                                                   Max.-Head-Change                         Max.-Flux-Residual
  Residual-Control   Outer-Iter.   Inner-Iter.     Column Row Layer    Maximum-Head-Change  Column Row Layer    Maximum-Flux-Residual          L2-NORM 
          0                 1           2             5    8     1       0.1844830267E+01       5    8    1         0.1012323198E+03      0.1616285696E+03
          0                 2           2             4    6     1       0.6401503798E+00       4    6    1         0.3425496175E+02      0.5580995169E+02
          0                 3           2             4    6     1       0.4341831937E+00       4    6    1         0.2338990982E+02      0.2988026405E+02
          0                 4           2             4    8     1      -0.1820766270E+01       4    8    1        -0.9887562239E+02      0.2347324919E+03
          0                 5           2             4    6     1      -0.9634907959E+00       4    6    1        -0.5307860034E+02      0.8105840211E+02
          0                 6           2             4    6     1      -0.5800202398E+00       4    6    1        -0.3214020773E+02      0.3802425708E+02
          0                 7           2             4    6     1      -0.3482447660E+00       4    6    1        -0.1933465408E+02      0.2183825134E+02
          0                 8           2             4    6     1      -0.2088489891E+00       4    6    1        -0.1160555319E+02      0.1299460839E+02
          0                 9           2             4    6     1      -0.1181902288E+00       4    6    1        -0.6567010092E+01      0.7454100532E+01
          0                10           2             4    7     1      -0.3823449104E-01       4    7    1        -0.2143498788E+01      0.2198840304E+01
                                                   Max.-Head-Change                         Max.-Flux-Residual
  Residual-Control   Outer-Iter.   Inner-Iter.     Column Row Layer    Maximum-Head-Change  Column Row Layer    Maximum-Flux-Residual          L2-NORM 
          0                11           2             4    7     1      -0.2277587682E-01       4    7    1        -0.1272844869E+01      0.1273943297E+01
          0                12           2             4    7     1      -0.1356708653E-01       4    7    1        -0.7583571361E+00      0.7585069592E+00
          0                13           2             4    7     1      -0.8081508251E-02       4    7    1        -0.4517271216E+00      0.4517516845E+00
          0                14           1             4    7     1      -0.4813866419E-02       4    7    1        -0.2690760163E+00      0.2690804088E+00
          0                15           1             4    7     1      -0.2867425630E-02       4    7    1        -0.1602764345E+00      0.1602773698E+00
          0                16           1             4    7     1      -0.1707997258E-02       4    7    1        -0.9546868216E-01      0.9546894469E-01
          0                17           1             4    7     1      -0.1017370726E-02       4    7    1        -0.5686552986E-01      0.5686562955E-01
          0                18           1             4    7     1      -0.6059941864E-03       4    7    1        -0.3387149213E-01      0.3387153930E-01
          0                19           1             4    7     1      -0.3609565089E-03       4    7    1        -0.2017514795E-01      0.2017517314E-01
          0                20           1             4    7     1      -0.2150000292E-03       4    7    1        -0.1201700745E-01      0.1201702173E-01
                                                   Max.-Head-Change                         Max.-Flux-Residual
  Residual-Control   Outer-Iter.   Inner-Iter.     Column Row Layer    Maximum-Head-Change  Column Row Layer    Maximum-Flux-Residual          L2-NORM 
          0                21           1             4    7     1      -0.1280617388E-03       4    7    1        -0.7157694478E-02      0.7157702905E-02
          0                22           1             4    7     1      -0.7627768594E-04       4    7    1        -0.4263312993E-02      0.4263318151E-02

    ------------------------------------------------
       NWT REQUIRED           22 OUTER ITERATIONS 
       AND A TOTAL OF         35 INNER ITERATIONS.
    ------------------------------------------------

 NO OUTPUT CONTROL FOR STRESS PERIOD   33   TIME STEP   30



 STREAM LISTING     PERIOD     33   STEP       30

 LAYER ROW COL. STREAM  RCH.  FLOW INTO     FLOW TO   FLOW OUT OF   OVRLND.     DIRECT     STREAM       STREAM     STREAM     STREAM   STREAMBED  STREAMBED
                SEG.NO.  NO.  STRM. RCH.    AQUIFER    STRM. RCH.    RUNOFF     PRECIP       ET          HEAD       DEPTH      WIDTH   CONDCTNC.   GRADIENT

   1    1    1     1     1    2.2874E+01  2.3513E-01   2.2639E+01  0.000E+00  0.000E+00  0.000E+00  1.09419E+03  1.146E+00  1.260E+01  5.672E-02  1.382E+00
   1    2    2     1     2    2.2639E+01  3.6351E-01   2.2276E+01  0.000E+00  0.000E+00  0.000E+00  1.08920E+03  1.141E+00  1.254E+01  8.778E-02  1.380E+00
   1    3    3     1     3    2.2276E+01  3.0939E-01   2.1966E+01  0.000E+00  0.000E+00  0.000E+00  1.08355E+03  1.136E+00  1.247E+01  7.481E-02  1.379E+00
   1    3    4     1     4    2.1966E+01  2.8439E-01   2.1682E+01  0.000E+00  0.000E+00  0.000E+00  1.07854E+03  1.131E+00  1.240E+01  6.885E-02  1.377E+00
   1    4    5     2     1    1.9682E+01  3.1521E-01   1.9367E+01  0.000E+00  0.000E+00  0.000E+00  1.07298E+03  1.041E+00  1.200E+01  7.800E-02  1.347E+00
   1    5    6     2     2    1.9367E+01  2.4193E-01   1.9125E+01  0.000E+00  0.000E+00  0.000E+00  1.06754E+03  1.032E+00  1.200E+01  6.000E-02  1.344E+00
   1    6    6     2     3    1.9125E+01  2.4146E-01   1.8883E+01  0.000E+00  0.000E+00  0.000E+00  1.06282E+03  1.024E+00  1.200E+01  6.000E-02  1.341E+00
   1    7    6     2     4    1.8883E+01  2.4099E-01   1.8642E+01  0.000E+00  0.000E+00  0.000E+00  1.05809E+03  1.017E+00  1.200E+01  6.000E-02  1.339E+00
   1    8    6     2     5    1.8642E+01  2.4052E-01   1.8402E+01  0.000E+00  0.000E+00  0.000E+00  1.05337E+03  1.009E+00  1.200E+01  6.000E-02  1.336E+00
   1    3    5     3     1    2.0000E+00  2.8252E-01   1.7175E+00  0.000E+00  0.000E+00  0.000E+00  1.07555E+03  1.909E+00  9.636E+00  7.227E-02  1.955E+00
   1    3    6     3     2    1.7175E+00  2.4905E-01   1.4684E+00  0.000E+00  0.000E+00  0.000E+00  1.07264E+03  1.727E+00  8.909E+00  6.682E-02  1.864E+00
   1    3    7     3     3    1.4684E+00  1.9718E-01   1.2712E+00  0.000E+00  0.000E+00  0.000E+00  1.06987E+03  1.555E+00  8.218E+00  5.547E-02  1.777E+00
   1    4    8     3     4    1.2712E+00  2.2567E-01   1.0456E+00  0.000E+00  0.000E+00  0.000E+00  1.06682E+03  1.364E+00  7.455E+00  6.709E-02  1.682E+00
   1    5    8     3     5    1.0456E+00  1.5790E-01   8.8768E-01  0.000E+00  0.000E+00  0.000E+00  1.06362E+03  1.164E+00  6.655E+00  4.991E-02  1.582E+00
   1    6    8     3     6    8.8768E-01  5.5980E-02   8.3170E-01  0.000E+00  0.000E+00  0.000E+00  1.06158E+03  1.036E+00  6.145E+00  1.844E-02  1.518E+00
   1    5   10     4     1    1.0000E+01  9.0919E-02   9.9091E+00  0.000E+00  0.000E+00  0.000E+00  1.07836E+03  6.368E-01  1.000E+01  2.500E-02  1.212E+00
   1    5    9     4     2    9.9091E+00  1.8158E-01   9.7275E+00  0.000E+00  0.000E+00  0.000E+00  1.07154E+03  6.315E-01  1.000E+01  5.000E-02  1.211E+00
   1    6    8     4     3    9.7275E+00  1.2689E-01   9.6006E+00  0.000E+00  0.000E+00  0.000E+00  1.06381E+03  6.256E-01  1.000E+01  3.500E-02  1.209E+00
   1    6    8     5     1    1.0432E+01  2.2686E-01   1.0205E+01  0.000E+00  0.000E+00  0.000E+00  1.05868E+03  6.790E-01  1.542E+01  6.166E-02  1.226E+00
   1    7    7     5     2    1.0205E+01  2.7894E-01   9.9265E+00  0.000E+00  0.000E+00  0.000E+00  1.05417E+03  6.732E-01  1.519E+01  7.594E-02  1.224E+00
   1    8    7     5     3    9.9265E+00  1.9221E-01   9.7343E+00  0.000E+00  0.000E+00  0.000E+00  1.04992E+03  6.676E-01  1.497E+01  5.241E-02  1.223E+00
   1    8    6     5     4    9.7343E+00  1.3577E-01   9.5985E+00  0.000E+00  0.000E+00  0.000E+00  1.04691E+03  6.637E-01  1.482E+01  3.706E-02  1.221E+00
   1    9    6     6     1    9.5985E+00  2.2097E-01   9.3776E+00  0.000E+00  0.000E+00  0.000E+00  1.04341E+03  6.828E-01  1.200E+01  6.000E-02  1.228E+00
   1   10    7     6     2    9.3776E+00  2.2039E-01   9.1572E+00  0.000E+00  0.000E+00  0.000E+00  1.03885E+03  6.732E-01  1.200E+01  6.000E-02  1.224E+00
   1   11    7     6     3    9.1572E+00  2.1981E-01   8.9374E+00  0.000E+00  0.000E+00  0.000E+00  1.03430E+03  6.636E-01  1.200E+01  6.000E-02  1.221E+00
   1   12    7     6     4    8.9374E+00  2.1923E-01   8.7181E+00  0.000E+00  0.000E+00  0.000E+00  1.02974E+03  6.539E-01  1.200E+01  6.000E-02  1.218E+00
   1   13    7     6     5    8.7181E+00  1.6762E-03   8.7165E+00  0.000E+00  0.000E+00  0.000E+00  1.02656E+03  6.489E-01  1.200E+01  2.400E-02  2.328E-02
   1   14    9     7     1    1.5000E+02  1.4024E+00   1.4860E+02  0.000E+00  0.000E+00  0.000E+00  1.03987E+03  2.288E+00  5.529E+01  5.593E-01  8.358E-01
   1   13    8     7     2    1.4860E+02  2.0333E+00   1.4656E+02  0.000E+00  0.000E+00  0.000E+00  1.03478E+03  2.278E+00  5.525E+01  6.147E-01  1.103E+00
   1   13    7     7     3    1.4656E+02  1.7863E+00   1.4478E+02  0.000E+00  0.000E+00  0.000E+00  1.02969E+03  2.268E+00  5.521E+01  5.583E-01  1.066E+00
   1   13    6     8     1    1.5349E+02  1.1315E+00   1.5236E+02  0.000E+00  0.000E+00  0.000E+00  1.02471E+03  2.837E+00  4.114E+01  4.192E-01  8.996E-01
   1   13    5     8     2    1.5236E+02  3.7954E-01   1.5198E+02  0.000E+00  0.000E+00  0.000E+00  1.01846E+03  2.832E+00  4.107E+01  4.185E-01  3.023E-01
   1   13    4     8     3    1.5198E+02 -1.7232E+00   1.5371E+02  0.000E+00  0.000E+00  0.000E+00  1.01221E+03  2.837E+00  4.113E+01  4.192E+00 -1.370E-01
   1   13    3     8     4    1.5371E+02 -3.2851E+00   1.5699E+02  0.000E+00  0.000E+00  0.000E+00  1.00598E+03  2.854E+00  4.138E+01  4.217E+00 -2.597E-01
   1   13    2     8     5    1.5699E+02 -2.4853E+00   1.5948E+02  0.000E+00  0.000E+00  0.000E+00  9.99749E+02  2.874E+00  4.167E+01  4.246E+00 -1.951E-01
   1   13    1     8     6    1.5948E+02 -1.9566E+00   1.6143E+02  0.000E+00  0.000E+00  0.000E+00  9.94764E+02  2.889E+00  4.189E+01  2.561E+00 -2.546E-01
   1    8    6     9     1    1.8402E+01  0.0000E+00   1.8402E+01  0.000E+00  0.000E+00  0.000E+00  1.08202E+03  3.267E+00  4.000E+00  0.000E+00  2.089E+00
   1    8    5     9     2    1.8402E+01  0.0000E+00   1.8402E+01  0.000E+00  0.000E+00  0.000E+00  1.08152E+03  3.267E+00  4.000E+00  0.000E+00  2.089E+00





UNSATURATED ZONE PACKAGE VOLUMETRIC BUDGET FOR  TIME STEP    30 STRESS PERIOD   33
  ------------------------------------------------------------------------------



     CUMULATIVE VOLUMES      L**3       RATES FOR THIS TIME STEP      L**3/T
     ------------------                 ------------------------

           IN:                                      IN:
           ---                                      ---
        INFILTRATION =  6178594149.1062          INFILTRATION =         619.2496

          OUT:                                     OUT:
          ----                                     ----
              UZF ET =  1247993846.5495                UZF ET =          49.5675
        UZF RECHARGE =  4031761219.5580          UZF RECHARGE =         169.6718

            IN - OUT =   898839082.9987              IN - OUT =         400.0103

          STORAGE:                                 STORAGE:
          --------                                 --------
      STORAGE CHANGE =   898874508.5491        STORAGE CHANGE =         400.0103

 PERCENT DISCREPANCY IS DIFFERENCE BETWEEN IN-OUT MINUS CHANGE IN STORAGE
 DIVIDED BY THE AVERAGE OF IN AND OUT TIMES 100

 PERCENT DISCREPANCY =          -0.00     PERCENT DISCREPANCY =           0.00






1
  VOLUMETRIC BUDGET FOR AGRICULTURAL FIELDS AT  END OF TIME STEP   30, STRESS PERIOD  33
  ------------------------------------------------------------------------------

     CUMULATIVE VOLUMES      L**3       RATES FOR THIS TIME STEP      L**3/T
     ------------------                 ------------------------

           IN:                                      IN:
           ---                                      ---
               AG WELLS  =  5348712448.0000                 AG WELLS  =         600.0000
      DIVERSION SEGMENTS =   758473408.0000        DIVERSION SEGMENTS =          18.4018
           GW IRRIGATION =           0.0000             GW IRRIGATION =           0.0000
           SW IRRIGATION =           0.0000             SW IRRIGATION =           0.0000
        SYSTEM LOSSES GW =           0.0000          SYSTEM LOSSES GW =           0.0000
        SYSTEM LOSSES SW =           0.0000          SYSTEM LOSSES SW =           0.0000

                TOTAL IN =  6107185664.0000                  TOTAL IN =         618.4018

          OUT:                                     OUT:
          ----                                     ----
               AG WELLS  =           0.0000                 AG WELLS  =           0.0000
      DIVERSION SEGMENTS =           0.0000        DIVERSION SEGMENTS =           0.0000
           GW IRRIGATION =  5348712448.0000             GW IRRIGATION =         600.0000
           SW IRRIGATION =   758488192.0000             SW IRRIGATION =          18.4022
        SYSTEM LOSSES GW =           0.0000          SYSTEM LOSSES GW =           0.0000
        SYSTEM LOSSES SW =           0.0000          SYSTEM LOSSES SW =           0.0000

               TOTAL OUT =  6107200512.0000                 TOTAL OUT =         618.4022

                IN - OUT =      -14848.0000                  IN - OUT =      -3.6621E-04

     PERCENT DISCREPANCY =          -0.00         PERCENT DISCREPANCY =          -0.00



1
  VOLUMETRIC BUDGET FOR ENTIRE MODEL AT END OF TIME STEP   30, STRESS PERIOD  33
  ------------------------------------------------------------------------------

     CUMULATIVE VOLUMES      L**3       RATES FOR THIS TIME STEP      L**3/T
     ------------------                 ------------------------

           IN:                                      IN:
           ---                                      ---
             STORAGE     =  5186451456.0000               STORAGE     =         427.4347
       CONSTANT HEAD     =           0.0000         CONSTANT HEAD     =           0.0000
     HEAD DEP BOUNDS     =    24323256.0000       HEAD DEP BOUNDS     =           0.2903
      STREAM LEAKAGE     =  1014758976.0000        STREAM LEAKAGE     =          12.4891
        UZF RECHARGE     =  4031760896.0000          UZF RECHARGE     =         169.6718
               GW ET     =           0.0000                 GW ET     =           0.0000
     SURFACE LEAKAGE     =           0.0000       SURFACE LEAKAGE     =           0.0000
           AG WELLS      =           0.0000             AG WELLS      =           0.0000

                TOTAL IN = 10257294336.0000                  TOTAL IN =         609.8859

          OUT:                                     OUT:
          ----                                     ----
             STORAGE     =  4061884160.0000               STORAGE     =           0.1522
       CONSTANT HEAD     =           0.0000         CONSTANT HEAD     =           0.0000
     HEAD DEP BOUNDS     =    24205380.0000       HEAD DEP BOUNDS     =           0.2861
      STREAM LEAKAGE     =   822413760.0000        STREAM LEAKAGE     =           9.4502
        UZF RECHARGE     =           0.0000          UZF RECHARGE     =           0.0000
               GW ET     =           0.0000                 GW ET     =           0.0000
     SURFACE LEAKAGE     =           0.0000       SURFACE LEAKAGE     =           0.0000
           AG WELLS      =  5348712448.0000             AG WELLS      =         600.0000

               TOTAL OUT = 10257215488.0000                 TOTAL OUT =         609.8884

                IN - OUT =       78848.0000                  IN - OUT =      -2.5024E-03

     PERCENT DISCREPANCY =           0.00         PERCENT DISCREPANCY =          -0.00






         TIME SUMMARY AT END OF TIME STEP   30 IN STRESS PERIOD   33
                    SECONDS     MINUTES      HOURS       DAYS        YEARS
                    -----------------------------------------------------------
   TIME STEP LENGTH  87667.      1461.1      24.352      1.0147     2.77799E-03
 STRESS PERIOD TIME 2.63000E+06  43833.      730.56      30.440     8.33397E-02
         TOTAL TIME 8.42463E+07 1.40410E+06  23402.      975.07      2.6696    
1
1
                            STRESS PERIOD NO.   34, LENGTH =   2630000.    
                            -----------------------------------------------

                              NUMBER OF TIME STEPS =    30

                               MULTIPLIER FOR DELT =     1.000

                            INITIAL TIME STEP SIZE =   87666.66    

 REUSING NON-PARAMETER GHB CELLS FROM LAST STRESS PERIOD

      2 GHB CELLS

 REUSING STREAM SEGMENT DATA FROM LAST STRESS PERIOD



            AREAL INFILTRATION RATE
 READING ON UNIT   19 WITH FORMAT: (FREE)              

            1           2           3           4           5           6           7           8           9          10
 ........................................................................................................................
   1   1.0000E-10  2.0000E-10   0.000       0.000       0.000       0.000       0.000       0.000       0.000       0.000    
   2   2.0000E-10  1.0000E-10  2.0000E-10   0.000       0.000      8.0000E-10  8.0000E-10  5.0000E-10   0.000       0.000    
   3    0.000      5.0000E-10  1.0000E-10  1.0000E-10  8.0000E-10  8.0000E-10  5.0000E-10  5.0000E-10   0.000       0.000    
   4   8.0000E-10  5.0000E-10  1.0000E-10  1.0000E-10  1.0000E-10  1.0000E-10  1.0000E-10  1.0000E-10  2.0000E-10   0.000    
   5   8.0000E-10  5.0000E-10  1.0000E-10  1.0000E-10  1.0000E-10  1.0000E-10  1.0000E-10  1.0000E-10  1.0000E-10  1.0000E-10
   6   8.0000E-10  5.0000E-10  5.0000E-10  2.0000E-10  2.0000E-10  1.0000E-10  1.0000E-10  1.0000E-10  1.0000E-10  5.0000E-10
   7   8.0000E-10  5.0000E-10  5.0000E-10  2.0000E-10  2.0000E-10  1.0000E-10  1.0000E-10  2.0000E-10  2.0000E-10   0.000    
   8    0.000      5.0000E-10  5.0000E-10  2.0000E-10  2.0000E-10  1.0000E-10  1.0000E-10  2.0000E-10  5.0000E-10   0.000    
   9    0.000      5.0000E-10  5.0000E-10  2.0000E-10  2.0000E-10  1.0000E-10  1.0000E-10  2.0000E-10  5.0000E-10   0.000    
  10    0.000      5.0000E-10  5.0000E-10  2.0000E-10  2.0000E-10  1.0000E-10  1.0000E-10  2.0000E-10  5.0000E-10  8.0000E-10
  11    0.000      1.0000E-10  1.0000E-10  1.0000E-10  1.0000E-10  1.0000E-10  1.0000E-10  2.0000E-10  5.0000E-10   0.000    
  12   1.0000E-10  1.0000E-10  1.0000E-10  1.0000E-10  1.0000E-10  1.0000E-10  1.0000E-10  1.0000E-10  2.0000E-10   0.000    
  13   1.0000E-10  1.0000E-10  2.0000E-10  2.0000E-10  2.0000E-10  2.0000E-10  2.0000E-10  1.0000E-10  1.0000E-10   0.000    
  14    0.000      2.0000E-10  5.0000E-10  5.0000E-10  5.0000E-10  5.0000E-10  5.0000E-10  2.0000E-10  1.0000E-10   0.000    
  15    0.000       0.000      8.0000E-10  8.0000E-10  8.0000E-10  8.0000E-10   0.000       0.000       0.000       0.000    

                  ET RATE =  7.500000E-08

 USING ET EXTINCTION DEPTH FROM PREVIOUS STRESS PERIOD. CURRENT PERIOD IS:      34

 USING EXTINCTION WATER CONTENT FROM PREVIOUS STRESS PERIOD. CURRENT PERIOD IS:      34

 USING AIR ENTRY PRESSURE FROM PREVIOUS STRESS PERIOD. CURRENT PERIOD IS:      34

 USING ROOT PRESSURE HEAD FROM PREVIOUS STRESS PERIOD. CURRENT PERIOD IS:      34

 USING ROOT ACTIVITY FROM PREVIOUS STRESS PERIOD. CURRENT PERIOD IS:      34

 PROCESSING AG STRESS PERIOD DATA

 READING AG STRESS PERIOD DATA

 READING IRRIGATION SEGMENT

 READING IRRIGATION WELL

 READING SUPPLEMENTAL WELL

 END PROCESSING AG STRESS PERIOD DATA OPTIONS
 
 SOLVING FOR HEAD 
                                                   Max.-Head-Change                         Max.-Flux-Residual
  Residual-Control   Outer-Iter.   Inner-Iter.     Column Row Layer    Maximum-Head-Change  Column Row Layer    Maximum-Flux-Residual          L2-NORM 
          0                 1           2             4    6     1       0.1349190971E+01       4    6    1         0.7260633469E+02      0.1078573588E+03
          0                 2           2             5    7     1       0.4935281564E+00       5    7    1         0.2667089417E+02      0.4986148341E+02
          0                 3           2             5    7     1       0.2897108534E+00       5    7    1         0.1569814544E+02      0.2712124303E+02
          0                 4           2             5    7     1       0.1697876026E+00       5    7    1         0.9211146241E+01      0.1556045084E+02
          0                 5           2             5    7     1       0.9940489596E-01       5    7    1         0.5397197506E+01      0.7828267493E+01
          0                 6           2             5    7     1       0.5816018588E-01       5    7    1         0.3159454423E+01      0.4383423662E+01
          0                 7           2             5    7     1       0.3401529049E-01       5    7    1         0.1848386722E+01      0.2537159470E+01
          0                 8           2             5    7     1       0.1988976486E-01       5    7    1         0.1080984342E+01      0.1481062309E+01
          0                 9           2             5    7     1       0.1162892700E-01       5    7    1         0.6320670870E+00      0.8663388361E+00
          0                10           2             5    7     1       0.6798797024E-02       5    7    1         0.3695452884E+00      0.5069998745E+00
                                                   Max.-Head-Change                         Max.-Flux-Residual
  Residual-Control   Outer-Iter.   Inner-Iter.     Column Row Layer    Maximum-Head-Change  Column Row Layer    Maximum-Flux-Residual          L2-NORM 
          0                11           2             5    7     1       0.3974868100E-02       5    7    1         0.2160519543E+00      0.2967375328E+00
          0                12           2             5    7     1       0.2323914735E-02       5    7    1         0.1263132647E+00      0.1736782714E+00
          0                13           2             5    7     1       0.1358716900E-02       5    7    1         0.7384951222E-01      0.1016528701E+00
          0                14           2             5    7     1       0.7944220407E-03       5    7    1         0.4317756856E-01      0.5949685433E-01
          0                15           2             5    7     1       0.4645024963E-03       5    7    1         0.2524541538E-01      0.3482320486E-01
          0                16           2             5    7     1       0.2716061131E-03       5    7    1         0.1476119190E-01      0.2038187204E-01
          0                17           2             5    7     1       0.1588201687E-03       5    7    1         0.8631277404E-02      0.1192944215E-01
          0                18           1             5    7     1       0.9287228045E-04       5    7    1         0.5047116437E-02      0.6982275459E-02

    ------------------------------------------------
       NWT REQUIRED           18 OUTER ITERATIONS 
       AND A TOTAL OF         35 INNER ITERATIONS.
    ------------------------------------------------

 NO OUTPUT CONTROL FOR STRESS PERIOD   34   TIME STEP    1
 
 SOLVING FOR HEAD 
                                                   Max.-Head-Change                         Max.-Flux-Residual
  Residual-Control   Outer-Iter.   Inner-Iter.     Column Row Layer    Maximum-Head-Change  Column Row Layer    Maximum-Flux-Residual          L2-NORM 
          0                 1           2             4    7     1       0.1845765573E+01       5    8    1         0.1009115683E+03      0.1631487473E+03
          0                 2           2             4    6     1       0.7538590349E+00       4    6    1         0.4045215118E+02      0.6098985938E+02
          0                 3           2             4    6     1       0.4439036483E+00       4    6    1         0.2400767651E+02      0.2745982397E+02
          0                 4           2             4    6     1       0.1414301045E+00       4    6    1         0.7650946219E+01      0.8620730378E+01
          0                 5           2             4    6     1       0.4068506323E-01       4    6    1         0.2199719068E+01      0.2501331488E+01
          0                 6           2             4    6     1       0.1171279288E-01       4    6    1         0.6329208588E+00      0.7268783197E+00
          0                 7           2             4    6     1       0.3374529173E-02       4    6    1         0.1822471810E+00      0.2115372725E+00
          0                 8           2             4    6     1       0.9729470974E-03       4    6    1         0.5251673791E-01      0.6164724897E-01
          0                 9           2             4    6     1       0.2807273870E-03       4    6    1         0.1514456661E-01      0.1798908803E-01
          0                10           1             4    6     1       0.8105802045E-04       4    6    1         0.4370533019E-02      0.5255812385E-02

    ------------------------------------------------
       NWT REQUIRED           10 OUTER ITERATIONS 
       AND A TOTAL OF         19 INNER ITERATIONS.
    ------------------------------------------------

 NO OUTPUT CONTROL FOR STRESS PERIOD   34   TIME STEP    2
 
 SOLVING FOR HEAD 
                                                   Max.-Head-Change                         Max.-Flux-Residual
  Residual-Control   Outer-Iter.   Inner-Iter.     Column Row Layer    Maximum-Head-Change  Column Row Layer    Maximum-Flux-Residual          L2-NORM 
          0                 1           2             4    8     1       0.1888267703E+01       4    8    1         0.1013595118E+03      0.1721399992E+03
          0                 2           2             5    6     1       0.7085662803E+00       5    6    1         0.3850282538E+02      0.6797639411E+02
          0                 3           2             5    8     1       0.2780913014E+00       5    8    1         0.1506365420E+02      0.2709723288E+02
          0                 4           2             5    8     1       0.1618300567E+00       5    8    1         0.8842322578E+01      0.1350849485E+02
          0                 5           2             4    7     1       0.9526617882E-01       4    7    1         0.5138919747E+01      0.7530408104E+01
          0                 6           2             4    7     1       0.5609451611E-01       4    7    1         0.3031304693E+01      0.4343201466E+01
          0                 7           2             4    7     1       0.3299394154E-01       4    7    1         0.1784351359E+01      0.2526494681E+01
          0                 8           2             4    7     1       0.1939840680E-01       4    7    1         0.1049390906E+01      0.1472895228E+01
          0                 9           2             4    7     1       0.1140392126E-01       4    7    1         0.6169473391E+00      0.8593157917E+00
          0                10           2             4    7     1       0.6704482693E-02       4    7    1         0.3626874278E+00      0.5015827740E+00
                                                   Max.-Head-Change                         Max.-Flux-Residual
  Residual-Control   Outer-Iter.   Inner-Iter.     Column Row Layer    Maximum-Head-Change  Column Row Layer    Maximum-Flux-Residual          L2-NORM 
          0                11           2             4    7     1       0.3942131318E-02       4    7    1         0.2132299296E+00      0.2929056300E+00
          0                12           2             4    7     1       0.2318283472E-02       4    7    1         0.1253783480E+00      0.1711244250E+00
          0                13           2             4    7     1       0.1363572591E-02       4    7    1         0.7373410320E-01      0.1000229321E+00
          0                14           2             4    7     1       0.8021745244E-03       4    7    1         0.4337019133E-01      0.5849146941E-01
          0                15           2             4    7     1       0.4719967255E-03       4    7    1         0.2551487536E-01      0.3422088622E-01
          0                16           2             4    7     1       0.2777718942E-03       4    7    1         0.1501326446E-01      0.2003064864E-01
          0                17           1             4    7     1       0.1634993431E-03       4    7    1         0.8835597937E-02      0.1173011627E-01
          0                18           1             4    7     1       0.9625451045E-04       4    7    1         0.5200858348E-02      0.6872443018E-02

    ------------------------------------------------
       NWT REQUIRED           18 OUTER ITERATIONS 
       AND A TOTAL OF         34 INNER ITERATIONS.
    ------------------------------------------------

 NO OUTPUT CONTROL FOR STRESS PERIOD   34   TIME STEP    3
 
 SOLVING FOR HEAD 
                                                   Max.-Head-Change                         Max.-Flux-Residual
  Residual-Control   Outer-Iter.   Inner-Iter.     Column Row Layer    Maximum-Head-Change  Column Row Layer    Maximum-Flux-Residual          L2-NORM 
          0                 1           2             4    6     1       0.1736096393E+01       4    6    1         0.9382016956E+02      0.1203806617E+03
          0                 2           2             4    8     1       0.5323366281E+00       4    8    1         0.2863144677E+02      0.4777644374E+02
          0                 3           2             4    8     1       0.3138742870E+00       4    8    1         0.1694657112E+02      0.2375107278E+02
          0                 4           2             4    8     1       0.1845956845E+00       4    8    1         0.9985574449E+01      0.1326429702E+02
          0                 5           2             4    8     1       0.1084279503E+00       4    8    1         0.5870862341E+01      0.7681110866E+01
          0                 6           2             4    8     1       0.6364865856E-01       4    8    1         0.3447895979E+01      0.4488670218E+01
          0                 7           2             4    8     1       0.3735100142E-01       4    8    1         0.2023805253E+01      0.2628573859E+01
          0                 8           2             4    8     1       0.2191525619E-01       4    8    1         0.1187586406E+01      0.1539993197E+01
          0                 9           2             4    8     1       0.1285746641E-01       4    8    1         0.6967887103E+00      0.9023183669E+00
          0                10           2             4    8     1       0.7543023036E-02       4    8    1         0.4087950492E+00      0.5287069973E+00
                                                   Max.-Head-Change                         Max.-Flux-Residual
  Residual-Control   Outer-Iter.   Inner-Iter.     Column Row Layer    Maximum-Head-Change  Column Row Layer    Maximum-Flux-Residual          L2-NORM 
          0                11           2             4    8     1       0.4425119087E-02       4    8    1         0.2398243972E+00      0.3098003136E+00
          0                12           2             4    8     1       0.2595960899E-02       4    8    1         0.1406927084E+00      0.1815353130E+00
          0                13           2             4    8     1       0.1522884934E-02       4    8    1         0.8253610541E-01      0.1063784066E+00
          0                14           2             4    8     1       0.8933731052E-03       4    8    1         0.4841861513E-01      0.6233886979E-01
          0                15           2             4    8     1       0.5240781683E-03       4    8    1         0.2840388351E-01      0.3653230032E-01
          0                16           2             4    8     1       0.3074376063E-03       4    8    1         0.1666251527E-01      0.2140953000E-01
          0                17           2             4    8     1       0.1803498675E-03       4    8    1         0.9774648805E-02      0.1254725013E-01
          0                18           1             4    8     1       0.1057968683E-03       4    8    1         0.5734026593E-02      0.7353609524E-02
          0                19           1             4    8     1       0.6206228217E-04       4    8    1         0.3363691983E-02      0.4309852830E-02

    ------------------------------------------------
       NWT REQUIRED           19 OUTER ITERATIONS 
       AND A TOTAL OF         36 INNER ITERATIONS.
    ------------------------------------------------

 NO OUTPUT CONTROL FOR STRESS PERIOD   34   TIME STEP    4
 
 SOLVING FOR HEAD 
                                                   Max.-Head-Change                         Max.-Flux-Residual
  Residual-Control   Outer-Iter.   Inner-Iter.     Column Row Layer    Maximum-Head-Change  Column Row Layer    Maximum-Flux-Residual          L2-NORM 
          0                 1           2             4    7     1       0.1632008417E+01       4    7    1         0.8727197645E+02      0.1484118937E+03
          0                 2           2             4    7     1       0.6888544164E+00       4    7    1         0.3687232561E+02      0.5971488711E+02
          0                 3           2             4    6     1       0.3423486292E+00       4    6    1         0.1838673329E+02      0.2640770921E+02
          0                 4           2             4    6     1       0.2014554989E+00       4    6    1         0.1090124813E+02      0.1225572757E+02
          0                 5           2             4    6     1       0.1179699504E+00       4    6    1         0.6406717163E+01      0.6625956419E+01
          0                 6           2             4    6     1       0.6884366465E-01       4    6    1         0.3747406195E+01      0.3784741407E+01
          0                 7           2             4    6     1       0.4014545038E-01       4    6    1         0.2187178394E+01      0.2194434125E+01
          0                 8           2             4    6     1       0.2339686216E-01       4    6    1         0.1275241213E+01      0.1276997067E+01
          0                 9           2             4    6     1       0.1363184154E-01       4    6    1         0.7431598365E+00      0.7437190707E+00
          0                10           2             4    6     1       0.7941265407E-02       4    6    1         0.4329757552E+00      0.4332039904E+00
                                                   Max.-Head-Change                         Max.-Flux-Residual
  Residual-Control   Outer-Iter.   Inner-Iter.     Column Row Layer    Maximum-Head-Change  Column Row Layer    Maximum-Flux-Residual          L2-NORM 
          0                11           2             4    6     1       0.4625878299E-02       4    6    1         0.2522267047E+00      0.2523367622E+00
          0                12           2             4    6     1       0.2694532433E-02       4    6    1         0.1469236621E+00      0.1469819184E+00
          0                13           2             4    6     1       0.1569513337E-02       4    6    1         0.8558133700E-01      0.8561368740E-01
          0                14           2             4    6     1       0.9142033406E-03       4    6    1         0.4984937584E-01      0.4986777628E-01
          0                15           2             4    6     1       0.5324988784E-03       4    6    1         0.2903601774E-01      0.2904660922E-01
          0                16           2             4    6     1       0.3101656079E-03       4    6    1         0.1691269106E-01      0.1691882391E-01
          0                17           2             4    6     1       0.1806625380E-03       4    6    1         0.9851163885E-02      0.9854725554E-02
          0                18           1             4    6     1       0.1052306699E-03       4    6    1         0.5738018632E-02      0.5740090153E-02
          0                19           1             4    6     1       0.6129378560E-04       4    6    1         0.3342228621E-02      0.3343434378E-02

    ------------------------------------------------
       NWT REQUIRED           19 OUTER ITERATIONS 
       AND A TOTAL OF         36 INNER ITERATIONS.
    ------------------------------------------------

 NO OUTPUT CONTROL FOR STRESS PERIOD   34   TIME STEP    5
 
 SOLVING FOR HEAD 
                                                   Max.-Head-Change                         Max.-Flux-Residual
  Residual-Control   Outer-Iter.   Inner-Iter.     Column Row Layer    Maximum-Head-Change  Column Row Layer    Maximum-Flux-Residual          L2-NORM 
          0                 1           2             4    8     1       0.1675318380E+01       4    8    1         0.9037779029E+02      0.1352099256E+03
          0                 2           2             5    7     1       0.7511156910E+00       5    7    1         0.4064733098E+02      0.6395043151E+02
          0                 3           2             5    6     1       0.3196756045E+00       5    6    1         0.1755011233E+02      0.2322238982E+02
          0                 4           2             5    6     1       0.2188229893E+00       5    6    1         0.1200815874E+02      0.1580159959E+02
          0                 5           2             5    6     1       0.9445873431E-01       5    6    1         0.5193506366E+01      0.7327718822E+01
          0                 6           2             4    7     1       0.4530522208E-01       4    7    1         0.2450140908E+01      0.3234925832E+01
          0                 7           2             4    7     1       0.2656702612E-01       4    7    1         0.1440674041E+01      0.1713209877E+01
          0                 8           2             4    7     1       0.1555034197E-01       4    7    1         0.8444715295E+00      0.9731283374E+00
          0                 9           2             4    7     1       0.9093200958E-02       4    7    1         0.4941874008E+00      0.5633668002E+00
          0                10           2             4    7     1       0.5314606628E-02       4    7    1         0.2889493897E+00      0.3276421051E+00
                                                   Max.-Head-Change                         Max.-Flux-Residual
  Residual-Control   Outer-Iter.   Inner-Iter.     Column Row Layer    Maximum-Head-Change  Column Row Layer    Maximum-Flux-Residual          L2-NORM 
          0                11           2             4    7     1       0.3105322301E-02       4    7    1         0.1688697275E+00      0.1907519248E+00
          0                12           1             4    7     1       0.1814170033E-02       4    7    1         0.9866760385E-01      0.1110835512E+00
          0                13           1             4    7     1       0.1059775193E-02       4    7    1         0.5764200128E-01      0.6469463646E-01
          0                14           1             4    7     1       0.6190548130E-03       4    7    1         0.3367216473E-01      0.3768007608E-01
          0                15           1             4    7     1       0.3616030301E-03       4    7    1         0.1966908696E-01      0.2194722502E-01
          0                16           1             4    7     1       0.2112160290E-03       4    7    1         0.1148909407E-01      0.1278417550E-01
          0                17           1             4    7     1       0.1233717756E-03       4    7    1         0.6710882771E-02      0.7447176479E-02
          0                18           1             4    7     1       0.7206097235E-04       4    7    1         0.3919835795E-02      0.4338468619E-02

    ------------------------------------------------
       NWT REQUIRED           18 OUTER ITERATIONS 
       AND A TOTAL OF         29 INNER ITERATIONS.
    ------------------------------------------------

 NO OUTPUT CONTROL FOR STRESS PERIOD   34   TIME STEP    6
 
 SOLVING FOR HEAD 
                                                   Max.-Head-Change                         Max.-Flux-Residual
  Residual-Control   Outer-Iter.   Inner-Iter.     Column Row Layer    Maximum-Head-Change  Column Row Layer    Maximum-Flux-Residual          L2-NORM 
          0                 1           2             4    6     1       0.1656826294E+01       4    6    1         0.8964709678E+02      0.1259824525E+03
          0                 2           2             4    6     1       0.5525427189E+00       4    6    1         0.2993003797E+02      0.4219530357E+02
          0                 3           2             4    8     1       0.1407666651E+00       4    8    1         0.7557060175E+01      0.1159530977E+02
          0                 4           2             4    8     1       0.1183730976E+00       4    8    1         0.6350025213E+01      0.9384201549E+01
          0                 5           2             4    8     1       0.6986282772E-01       4    8    1         0.3769982327E+01      0.4649981553E+01
          0                 6           2             4    8     1       0.4107433406E-01       4    8    1         0.2222799826E+01      0.2603402770E+01
          0                 7           2             4    8     1       0.2410386744E-01       4    8    1         0.1306220473E+01      0.1503907180E+01
          0                 8           2             4    8     1       0.1413215340E-01       4    8    1         0.7663578878E+00      0.8753052034E+00
          0                 9           2             4    8     1       0.8282005374E-02       4    8    1         0.4492663181E+00      0.5103314687E+00
          0                10           2             4    8     1       0.4852498850E-02       4    8    1         0.2632732102E+00      0.2976646186E+00
                                                   Max.-Head-Change                         Max.-Flux-Residual
  Residual-Control   Outer-Iter.   Inner-Iter.     Column Row Layer    Maximum-Head-Change  Column Row Layer    Maximum-Flux-Residual          L2-NORM 
          0                11           2             4    8     1       0.2842794610E-02       4    8    1         0.1542497244E+00      0.1736468909E+00
          0                12           2             4    8     1       0.1665324006E-02       4    8    1         0.9036456100E-01      0.1013102791E+00
          0                13           2             4    8     1       0.9755208019E-03       4    8    1         0.5293561777E-01      0.5911350062E-01
          0                14           2             4    8     1       0.5714318338E-03       4    8    1         0.3100871492E-01      0.3449594580E-01
          0                15           2             4    8     1       0.3347227270E-03       4    8    1         0.1816395204E-01      0.2013252286E-01
          0                16           2             4    8     1       0.1960650795E-03       4    8    1         0.1063971863E-01      0.1175105232E-01
          0                17           2             4    8     1       0.1148445287E-03       4    8    1         0.6232243178E-02      0.6859664076E-02
          0                18           1             4    8     1       0.6726912626E-04       4    8    1         0.3650511681E-02      0.4004749051E-02

    ------------------------------------------------
       NWT REQUIRED           18 OUTER ITERATIONS 
       AND A TOTAL OF         35 INNER ITERATIONS.
    ------------------------------------------------

 NO OUTPUT CONTROL FOR STRESS PERIOD   34   TIME STEP    7
 
 SOLVING FOR HEAD 
                                                   Max.-Head-Change                         Max.-Flux-Residual
  Residual-Control   Outer-Iter.   Inner-Iter.     Column Row Layer    Maximum-Head-Change  Column Row Layer    Maximum-Flux-Residual          L2-NORM 
          0                 1           2             5    6     1       0.1600741699E+01       5    6    1         0.8701325832E+02      0.1424308440E+03
          0                 2           2             4    7     1       0.7994822855E+00       4    7    1         0.4286251110E+02      0.5703860078E+02
          0                 3           2             4    7     1       0.2649079179E+00       4    7    1         0.1425853208E+02      0.1754380791E+02
          0                 4           2             4    6     1       0.1165274457E+00       4    6    1         0.6221252351E+01      0.1033512739E+02
          0                 5           2             4    6     1       0.6879668665E-01       4    6    1         0.3714156019E+01      0.4409903241E+01
          0                 6           2             4    6     1       0.4032415260E-01       4    6    1         0.2188688090E+01      0.2302269463E+01
          0                 7           2             4    6     1       0.2355241839E-01       4    6    1         0.1281702425E+01      0.1300848849E+01
          0                 8           2             4    6     1       0.1373271920E-01       4    6    1         0.7482809856E+00      0.7518798244E+00
          0                 9           2             4    6     1       0.8000338677E-02       4    6    1         0.4362053536E+00      0.4370225846E+00
          0                10           2             4    6     1       0.4658840029E-02       4    6    1         0.2540949931E+00      0.2543336151E+00
                                                   Max.-Head-Change                         Max.-Flux-Residual
  Residual-Control   Outer-Iter.   Inner-Iter.     Column Row Layer    Maximum-Head-Change  Column Row Layer    Maximum-Flux-Residual          L2-NORM 
          0                11           2             4    6     1       0.2712420137E-02       4    6    1         0.1479593655E+00      0.1480489931E+00
          0                12           2             4    6     1       0.1579033722E-02       4    6    1         0.8614106060E-01      0.8618179395E-01
          0                13           2             4    6     1       0.9191865868E-03       4    6    1         0.5014631405E-01      0.5016712690E-01
          0                14           2             4    6     1       0.5350630377E-03       4    6    1         0.2919096800E-01      0.2920230488E-01
          0                15           2             4    6     1       0.3114589114E-03       4    6    1         0.1699215212E-01      0.1699853494E-01
          0                16           2             4    6     1       0.1812983529E-03       4    6    1         0.9891075439E-02      0.9894729566E-02
          0                17           1             4    6     1       0.1055323495E-03       4    6    1         0.5757530846E-02      0.5759640386E-02
          0                18           1             4    6     1       0.6142945821E-04       4    6    1         0.3351412267E-02      0.3352635227E-02

    ------------------------------------------------
       NWT REQUIRED           18 OUTER ITERATIONS 
       AND A TOTAL OF         34 INNER ITERATIONS.
    ------------------------------------------------

 NO OUTPUT CONTROL FOR STRESS PERIOD   34   TIME STEP    8
 
 SOLVING FOR HEAD 
                                                   Max.-Head-Change                         Max.-Flux-Residual
  Residual-Control   Outer-Iter.   Inner-Iter.     Column Row Layer    Maximum-Head-Change  Column Row Layer    Maximum-Flux-Residual          L2-NORM 
          0                 1           2             4    6     1       0.8307804647E+00       4    6    1         0.4536372701E+02      0.4972904596E+02
          0                 2           2             4    6     1       0.2356864677E+00       4    6    1         0.1287713783E+02      0.1304663615E+02
          0                 3           2             5    7     1      -0.3871120922E-01       5    7    1        -0.2061261932E+01      0.4610226585E+01
          0                 4           2             4    6     1       0.4409892257E-01       4    6    1         0.2355337191E+01      0.4755123429E+01
          0                 5           2             4    6     1       0.1266031691E-01       4    6    1         0.6867028401E+00      0.8599523270E+00
          0                 6           2             4    6     1       0.3640654152E-02       4    6    1         0.1964411095E+00      0.2521087593E+00
          0                 7           2             4    6     1       0.1048890123E-02       4    6    1         0.5652746880E-01      0.7687772594E-01
          0                 8           2             4    6     1       0.3028199301E-03       4    7    1         0.1712242467E-01      0.2366917518E-01
          0                 9           1             4    7     1       0.9889579240E-04       4    7    1         0.5628177109E-02      0.7352095352E-02

    ------------------------------------------------
       NWT REQUIRED            9 OUTER ITERATIONS 
       AND A TOTAL OF         17 INNER ITERATIONS.
    ------------------------------------------------

 NO OUTPUT CONTROL FOR STRESS PERIOD   34   TIME STEP    9
 
 SOLVING FOR HEAD 
                                                   Max.-Head-Change                         Max.-Flux-Residual
  Residual-Control   Outer-Iter.   Inner-Iter.     Column Row Layer    Maximum-Head-Change  Column Row Layer    Maximum-Flux-Residual          L2-NORM 
          0                 1           2             5    6     1      -0.1607391703E+00       5    6    1        -0.8979206155E+01      0.2071341060E+02
          0                 2           2             5    6     1       0.1499832513E-01       5    6    1         0.8940591218E+00      0.2361926483E+01
          0                 3           2             5    7     1      -0.3846024250E-01       5    7    1        -0.2041680709E+01      0.4691513702E+01
          0                 4           2             4    6     1       0.3739103078E-01       4    6    1         0.2048546090E+01      0.4428915394E+01
          0                 5           2             4    7     1       0.7899983123E-02       4    7    1         0.4558148247E+00      0.4902983225E+00
          0                 6           2             4    7     1       0.2561842587E-02       4    7    1         0.1470271812E+00      0.1510178679E+00
          0                 7           2             4    7     1       0.8309317063E-03       4    7    1         0.4770695942E-01      0.4902441643E-01
          0                 8           1             4    7     1       0.2695609890E-03       4    7    1         0.1547350338E-01      0.1592087334E-01
          0                 9           1             4    7     1       0.8746218606E-04       4    7    1         0.5019762850E-02      0.5171197921E-02

    ------------------------------------------------
       NWT REQUIRED            9 OUTER ITERATIONS 
       AND A TOTAL OF         16 INNER ITERATIONS.
    ------------------------------------------------

 NO OUTPUT CONTROL FOR STRESS PERIOD   34   TIME STEP   10
 
 SOLVING FOR HEAD 
                                                   Max.-Head-Change                         Max.-Flux-Residual
  Residual-Control   Outer-Iter.   Inner-Iter.     Column Row Layer    Maximum-Head-Change  Column Row Layer    Maximum-Flux-Residual          L2-NORM 
          0                 1           2             5    6     1      -0.1506025747E+00       5    6    1        -0.8392718504E+01      0.1982465952E+02
          0                 2           2             5    6     1       0.1435495899E-01       5    6    1         0.8390696188E+00      0.2101558603E+01
          0                 3           2             5    7     1      -0.3826078583E-01       5    7    1        -0.2030314144E+01      0.4726666208E+01
          0                 4           2             4    6     1       0.3362479923E-01       5    6    1         0.1944411239E+01      0.4315242564E+01
          0                 5           2             4    7     1       0.7877440678E-02       4    7    1         0.4509684122E+00      0.4900592906E+00
          0                 6           2             4    7     1       0.2566298468E-02       4    7    1         0.1468199566E+00      0.1585427838E+00
          0                 7           2             4    7     1       0.8359083258E-03       4    7    1         0.4782561499E-01      0.5151894614E-01
          0                 8           1             4    7     1       0.2722351026E-03       4    7    1         0.1557706694E-01      0.1674306675E-01
          0                 9           1             4    7     1       0.8864776936E-04       4    7    1         0.5072802989E-02      0.5441559648E-02

    ------------------------------------------------
       NWT REQUIRED            9 OUTER ITERATIONS 
       AND A TOTAL OF         16 INNER ITERATIONS.
    ------------------------------------------------

 NO OUTPUT CONTROL FOR STRESS PERIOD   34   TIME STEP   11
 
 SOLVING FOR HEAD 
                                                   Max.-Head-Change                         Max.-Flux-Residual
  Residual-Control   Outer-Iter.   Inner-Iter.     Column Row Layer    Maximum-Head-Change  Column Row Layer    Maximum-Flux-Residual          L2-NORM 
          0                 1           2             5    6     1      -0.1409040634E+00       5    6    1        -0.7847285219E+01      0.1878848164E+02
          0                 2           2             5    6     1       0.1349958122E-01       5    6    1         0.7845525147E+00      0.2040861684E+01
          0                 3           2             5    7     1      -0.3807855697E-01       5    7    1        -0.2019928787E+01      0.4730229717E+01
          0                 4           2             4    6     1       0.3363747500E-01       4    6    1         0.1945050261E+01      0.4255688916E+01
          0                 5           2             4    7     1       0.7854512623E-02       4    7    1         0.4479811409E+00      0.5229139389E+00
          0                 6           2             4    7     1       0.2569628721E-02       4    7    1         0.1465099459E+00      0.1687688890E+00
          0                 7           2             4    7     1       0.8402192441E-03       4    7    1         0.4792272010E-01      0.5471611973E-01
          0                 8           2             4    7     1       0.2746030317E-03       4    7    1         0.1566787146E-01      0.1774750581E-01
          0                 9           1             4    7     1       0.8970692851E-04       4    7    1         0.5120056236E-02      0.5758488905E-02

    ------------------------------------------------
       NWT REQUIRED            9 OUTER ITERATIONS 
       AND A TOTAL OF         17 INNER ITERATIONS.
    ------------------------------------------------

 NO OUTPUT CONTROL FOR STRESS PERIOD   34   TIME STEP   12
 
 SOLVING FOR HEAD 
                                                   Max.-Head-Change                         Max.-Flux-Residual
  Residual-Control   Outer-Iter.   Inner-Iter.     Column Row Layer    Maximum-Head-Change  Column Row Layer    Maximum-Flux-Residual          L2-NORM 
          0                 1           2             5    6     1      -0.1317796462E+00       5    6    1        -0.7338255509E+01      0.1773267424E+02
          0                 2           2             5    6     1       0.1262524372E-01       5    6    1         0.7336717018E+00      0.1913795817E+01
          0                 3           2             5    7     1      -0.3791042205E-01       5    7    1        -0.2010351930E+01      0.4725324887E+01
          0                 4           2             4    6     1       0.3363465421E-01       4    6    1         0.1944973981E+01      0.4202443202E+01
          0                 5           2             4    7     1       0.7833319884E-02       4    7    1         0.4452334104E+00      0.5613426272E+00
          0                 6           2             4    7     1       0.2572618921E-02       4    7    1         0.1462224400E+00      0.1804619962E+00
          0                 7           2             4    7     1       0.8441488273E-03       4    7    1         0.4801054829E-01      0.5829130629E-01
          0                 8           2             4    7     1       0.2767658920E-03       4    7    1         0.1575069102E-01      0.1884716724E-01
          0                 9           1             4    7     1       0.9067513129E-04       4    7    1         0.5163225493E-02      0.6098651079E-02

    ------------------------------------------------
       NWT REQUIRED            9 OUTER ITERATIONS 
       AND A TOTAL OF         17 INNER ITERATIONS.
    ------------------------------------------------

 NO OUTPUT CONTROL FOR STRESS PERIOD   34   TIME STEP   13
 
 SOLVING FOR HEAD 
                                                   Max.-Head-Change                         Max.-Flux-Residual
  Residual-Control   Outer-Iter.   Inner-Iter.     Column Row Layer    Maximum-Head-Change  Column Row Layer    Maximum-Flux-Residual          L2-NORM 
          0                 1           2             5    6     1      -0.1232598168E+00       5    6    1        -0.6863083594E+01      0.1674988219E+02
          0                 2           2             5    6     1       0.1180872655E-01       5    6    1         0.6861738378E+00      0.1797323031E+01
          0                 3           2             5    7     1      -0.3775440221E-01       5    7    1        -0.2001478648E+01      0.4720632722E+01
          0                 4           2             4    6     1       0.3363212852E-01       4    6    1         0.1944903858E+01      0.4155147293E+01
          0                 5           2             4    7     1       0.7815001699E-02       4    7    1         0.4427773148E+00      0.6022986160E+00
          0                 6           2             4    7     1       0.2575725565E-02       4    7    1         0.1459796005E+00      0.1928003486E+00
          0                 7           2             4    7     1       0.8478712722E-03       4    7    1         0.4809788394E-01      0.6202448737E-01
          0                 8           2             4    7     1       0.2787880381E-03       4    7    1         0.1582885457E-01      0.1998329662E-01
          0                 9           1             4    7     1       0.9157561221E-04       4    7    1         0.5203534676E-02      0.6446411583E-02

    ------------------------------------------------
       NWT REQUIRED            9 OUTER ITERATIONS 
       AND A TOTAL OF         17 INNER ITERATIONS.
    ------------------------------------------------

 NO OUTPUT CONTROL FOR STRESS PERIOD   34   TIME STEP   14
 
 SOLVING FOR HEAD 
                                                   Max.-Head-Change                         Max.-Flux-Residual
  Residual-Control   Outer-Iter.   Inner-Iter.     Column Row Layer    Maximum-Head-Change  Column Row Layer    Maximum-Flux-Residual          L2-NORM 
          0                 1           2             5    6     1      -0.1153024687E+00       5    6    1        -0.6419404345E+01      0.1583434053E+02
          0                 2           2             5    6     1       0.1104603295E-01       5    6    1         0.6418227777E+00      0.1690412842E+01
          0                 3           2             5    7     1      -0.3760929828E-01       5    7    1        -0.1993239136E+01      0.4716114644E+01
          0                 4           2             4    6     1       0.3362986084E-01       4    6    1         0.1944838921E+01      0.4113041764E+01
          0                 5           2             4    7     1       0.7799266057E-02       4    7    1         0.4405834498E+00      0.6438120183E+00
          0                 6           2             4    7     1       0.2578935372E-02       4    7    1         0.1457768747E+00      0.2052477978E+00
          0                 7           2             4    7     1       0.8514067096E-03       4    7    1         0.4818474543E-01      0.6577085049E-01
          0                 8           2             4    7     1       0.2806833340E-03       4    7    1         0.1590281670E-01      0.2111693203E-01
          0                 9           1             4    7     1       0.9241507062E-04       4    7    1         0.5241265886E-02      0.6791334256E-02

    ------------------------------------------------
       NWT REQUIRED            9 OUTER ITERATIONS 
       AND A TOTAL OF         17 INNER ITERATIONS.
    ------------------------------------------------

 NO OUTPUT CONTROL FOR STRESS PERIOD   34   TIME STEP   15
 
 SOLVING FOR HEAD 
                                                   Max.-Head-Change                         Max.-Flux-Residual
  Residual-Control   Outer-Iter.   Inner-Iter.     Column Row Layer    Maximum-Head-Change  Column Row Layer    Maximum-Flux-Residual          L2-NORM 
          0                 1           2             5    6     1      -0.1078684539E+00       5    6    1        -0.6005019217E+01      0.1498082496E+02
          0                 2           2             5    6     1       0.1033344211E-01       5    6    1         0.6003989864E+00      0.1592123253E+01
          0                 3           2             5    7     1      -0.3747407302E-01       5    7    1        -0.1985572869E+01      0.4711743369E+01
          0                 4           2             4    6     1       0.3362789353E-01       4    6    1         0.1944779367E+01      0.4080805352E+01
          0                 5           2             4    7     1       0.7784596665E-02       4    7    1         0.4387198225E+00      0.6775713411E+00
          0                 6           2             4    7     1       0.2580748007E-02       4    7    1         0.1455751659E+00      0.2153199868E+00
          0                 7           2             4    7     1       0.8539624903E-03       4    7    1         0.4823989974E-01      0.6878732043E-01
          0                 8           2             4    7     1       0.2821018131E-03       4    7    1         0.1595681779E-01      0.2202511311E-01
          0                 9           1             4    7     1       0.9305180224E-04       4    7    1         0.5269599099E-02      0.7066277474E-02

    ------------------------------------------------
       NWT REQUIRED            9 OUTER ITERATIONS 
       AND A TOTAL OF         17 INNER ITERATIONS.
    ------------------------------------------------

 NO OUTPUT CONTROL FOR STRESS PERIOD   34   TIME STEP   16
 
 SOLVING FOR HEAD 
                                                   Max.-Head-Change                         Max.-Flux-Residual
  Residual-Control   Outer-Iter.   Inner-Iter.     Column Row Layer    Maximum-Head-Change  Column Row Layer    Maximum-Flux-Residual          L2-NORM 
          0                 1           2             5    6     1      -0.1009215265E+00       5    6    1        -0.5617892146E+01      0.1418455525E+02
          0                 2           2             5    6     1       0.9667503411E-02       5    6    1         0.5616991348E+00      0.1501614870E+01
          0                 3           2             5    7     1      -0.3734781620E-01       5    7    1        -0.1978426721E+01      0.4707496341E+01
          0                 4           2             4    6     1       0.3362626449E-01       4    6    1         0.1944724307E+01      0.4064051643E+01
          0                 5           2             4    7     1       0.7769226443E-02       4    7    1         0.4372771667E+00      0.6940363137E+00
          0                 6           2             4    7     1       0.2579340517E-02       4    7    1         0.1453281075E+00      0.2201358137E+00
          0                 7           2             4    7     1       0.8545681846E-03       4    7    1         0.4822531826E-01      0.7020378570E-01
          0                 8           2             4    7     1       0.2826136663E-03       4    7    1         0.1597154882E-01      0.2244452382E-01
          0                 9           1             4    7     1       0.9331148328E-04       4    7    1         0.5280155212E-02      0.7191353887E-02

    ------------------------------------------------
       NWT REQUIRED            9 OUTER ITERATIONS 
       AND A TOTAL OF         17 INNER ITERATIONS.
    ------------------------------------------------

 NO OUTPUT CONTROL FOR STRESS PERIOD   34   TIME STEP   17
 
 SOLVING FOR HEAD 
                                                   Max.-Head-Change                         Max.-Flux-Residual
  Residual-Control   Outer-Iter.   Inner-Iter.     Column Row Layer    Maximum-Head-Change  Column Row Layer    Maximum-Flux-Residual          L2-NORM 
          0                 1           2             5    6     1      -0.9442795651E-01       5    6    1        -0.5256130156E+01      0.1344114711E+02
          0                 2           2             5    6     1       0.9045006313E-02       5    6    1         0.5255341661E+00      0.1418131149E+01
          0                 3           2             5    7     1      -0.3722968357E-01       5    7    1        -0.1971751430E+01      0.4703358490E+01
          0                 4           2             4    6     1       0.3362481690E-01       4    6    1         0.1944673747E+01      0.4048932173E+01
          0                 5           2             4    7     1       0.7756068541E-02       4    7    1         0.4359998538E+00      0.7106545001E+00
          0                 6           2             4    7     1       0.2578405996E-02       4    7    1         0.1451195649E+00      0.2249873627E+00
          0                 7           2             4    7     1       0.8552547377E-03       4    7    1         0.4821874814E-01      0.7162698778E-01
          0                 8           2             4    7     1       0.2831302274E-03       4    7    1         0.1598754935E-01      0.2286457522E-01
          0                 9           1             4    7     1       0.9356630802E-04       4    7    1         0.5290728916E-02      0.7316159985E-02

    ------------------------------------------------
       NWT REQUIRED            9 OUTER ITERATIONS 
       AND A TOTAL OF         17 INNER ITERATIONS.
    ------------------------------------------------

 NO OUTPUT CONTROL FOR STRESS PERIOD   34   TIME STEP   18
 
 SOLVING FOR HEAD 
                                                   Max.-Head-Change                         Max.-Flux-Residual
  Residual-Control   Outer-Iter.   Inner-Iter.     Column Row Layer    Maximum-Head-Change  Column Row Layer    Maximum-Flux-Residual          L2-NORM 
          0                 1           2             5    6     1      -0.8835650172E-01       5    6    1        -0.4917979339E+01      0.1274662617E+02
          0                 2           2             4    5     1      -0.8488777673E-02       5    6    1         0.4917288985E+00      0.1341000770E+01
          0                 3           2             5    7     1      -0.3711898395E-01       5    7    1        -0.1965506523E+01      0.4699317287E+01
          0                 4           2             4    6     1       0.3362353688E-01       4    6    1         0.1944626987E+01      0.4035678594E+01
          0                 5           2             4    7     1       0.7744782940E-02       4    7    1         0.4348792542E+00      0.7266860837E+00
          0                 6           2             4    7     1       0.2577764557E-02       4    7    1         0.1449424437E+00      0.2296622757E+00
          0                 7           2             4    7     1       0.8559431446E-03       4    7    1         0.4821661342E-01      0.7299592537E-01
          0                 8           2             4    7     1       0.2836197385E-03       4    7    1         0.1600328107E-01      0.2326768431E-01
          0                 9           1             4    7     1       0.9380415502E-04       4    7    1         0.5300708905E-02      0.7435605357E-02

    ------------------------------------------------
       NWT REQUIRED            9 OUTER ITERATIONS 
       AND A TOTAL OF         17 INNER ITERATIONS.
    ------------------------------------------------

 NO OUTPUT CONTROL FOR STRESS PERIOD   34   TIME STEP   19
 
 SOLVING FOR HEAD 
                                                   Max.-Head-Change                         Max.-Flux-Residual
  Residual-Control   Outer-Iter.   Inner-Iter.     Column Row Layer    Maximum-Head-Change  Column Row Layer    Maximum-Flux-Residual          L2-NORM 
          0                 1           2             4    5     1       0.8312269630E-01       5    6    1        -0.4601815652E+01      0.1208906401E+02
          0                 2           2             4    5     1      -0.8085252986E-02       5    6    1         0.4601211077E+00      0.1261226313E+01
          0                 3           2             5    7     1      -0.3701718192E-01       5    7    1        -0.1959816047E+01      0.4694331019E+01
          0                 4           2             4    6     1       0.3362269214E-01       4    6    1         0.1944584212E+01      0.4035878869E+01
          0                 5           2             4    7     1       0.7732021378E-02       4    7    1         0.4341279768E+00      0.7267939974E+00
          0                 6           2             4    7     1       0.2573744170E-02       4    7    1         0.1447060465E+00      0.2296736822E+00
          0                 7           2             4    7     1       0.8546750255E-03       4    7    1         0.4814212624E-01      0.7299278863E-01
          0                 8           2             4    7     1       0.2832192705E-03       4    7    1         0.1597978156E-01      0.2326470416E-01
          0                 9           1             4    7     1       0.9367754282E-04       4    7    1         0.5293286418E-02      0.7434078314E-02

    ------------------------------------------------
       NWT REQUIRED            9 OUTER ITERATIONS 
       AND A TOTAL OF         17 INNER ITERATIONS.
    ------------------------------------------------

 NO OUTPUT CONTROL FOR STRESS PERIOD   34   TIME STEP   20
 
 SOLVING FOR HEAD 
                                                   Max.-Head-Change                         Max.-Flux-Residual
  Residual-Control   Outer-Iter.   Inner-Iter.     Column Row Layer    Maximum-Head-Change  Column Row Layer    Maximum-Flux-Residual          L2-NORM 
          0                 1           2             4    5     1       0.7918110623E-01       4    5    1         0.4318939884E+01      0.1138888780E+02
          0                 2           2             4    5     1      -0.7701987334E-02       4    5    1        -0.4318760962E+00      0.1221991610E+01
          0                 3           2             5    7     1      -0.3696017372E-01       5    7    1        -0.1957228057E+01      0.4673348611E+01
          0                 4           2             5    8     1       0.3683547528E-01       5    8    1         0.2051282764E+01      0.4100038815E+01
          0                 5           2             4    7     1       0.7695000100E-02       4    7    1         0.4198556390E+00      0.7352318882E+00
          0                 6           2             4    7     1       0.2418751870E-02       4    7    1         0.1319426271E+00      0.2222567437E+00
          0                 7           2             4    7     1       0.7597372730E-03       4    7    1         0.4146401820E-01      0.6888915627E-01
          0                 8           2             4    7     1       0.2384772732E-03       4    7    1         0.1302186345E-01      0.2135783283E-01
          0                 9           1             4    7     1       0.7481042266E-04       4    7    1         0.4086891022E-02      0.6623509928E-02

    ------------------------------------------------
       NWT REQUIRED            9 OUTER ITERATIONS 
       AND A TOTAL OF         17 INNER ITERATIONS.
    ------------------------------------------------

 NO OUTPUT CONTROL FOR STRESS PERIOD   34   TIME STEP   21
 
 SOLVING FOR HEAD 
                                                   Max.-Head-Change                         Max.-Flux-Residual
  Residual-Control   Outer-Iter.   Inner-Iter.     Column Row Layer    Maximum-Head-Change  Column Row Layer    Maximum-Flux-Residual          L2-NORM 
          0                 1           2             4    5     1       0.7543751925E-01       4    5    1         0.4114123704E+01      0.1074783887E+02
          0                 2           2             4    5     1      -0.7337967630E-02       4    5    1        -0.4113964155E+00      0.1160949340E+01
          0                 3           2             5    7     1      -0.3688198006E-01       5    8    1        -0.1962695805E+01      0.4720907150E+01
          0                 4           2             4    6     1       0.3361639184E-01       4    6    1         0.1943678845E+01      0.3875854441E+01
          0                 5           2             4    7     1       0.7686149637E-02       4    7    1         0.4192737007E+00      0.7512273599E+00
          0                 6           2             4    7     1       0.2417286566E-02       4    7    1         0.1317978367E+00      0.2344971690E+00
          0                 7           2             4    7     1       0.7599178448E-03       4    7    1         0.4144344209E-01      0.7332580445E-01
          0                 8           2             4    7     1       0.2388031213E-03       4    7    1         0.1302709001E-01      0.2293436580E-01
          0                 9           1             4    7     1       0.7501747272E-04       4    7    1         0.4093355499E-02      0.7174694383E-02

    ------------------------------------------------
       NWT REQUIRED            9 OUTER ITERATIONS 
       AND A TOTAL OF         17 INNER ITERATIONS.
    ------------------------------------------------

 NO OUTPUT CONTROL FOR STRESS PERIOD   34   TIME STEP   22
 
 SOLVING FOR HEAD 
                                                   Max.-Head-Change                         Max.-Flux-Residual
  Residual-Control   Outer-Iter.   Inner-Iter.     Column Row Layer    Maximum-Head-Change  Column Row Layer    Maximum-Flux-Residual          L2-NORM 
          0                 1           2             4    5     1       0.7188236127E-01       4    5    1         0.3919603600E+01      0.1020142567E+02
          0                 2           2             4    5     1      -0.6992255291E-02       4    5    1        -0.3919461294E+00      0.1077679982E+01
          0                 3           2             5    7     1      -0.3675363377E-01       5    7    1        -0.1944234872E+01      0.4701225776E+01
          0                 4           2             4    6     1       0.3361583291E-01       4    6    1         0.1943643540E+01      0.3783856510E+01
          0                 5           2             4    7     1       0.7679695903E-02       4    7    1         0.4188547618E+00      0.8236772680E+00
          0                 6           2             4    7     1       0.2416220635E-02       4    7    1         0.1316918762E+00      0.2573879204E+00
          0                 7           2             4    7     1       0.7600554495E-03       4    7    1         0.4142851872E-01      0.8053696074E-01
          0                 8           2             4    7     1       0.2390416750E-03       4    7    1         0.1303102004E-01      0.2520297952E-01
          0                 9           1             4    7     1       0.7516661393E-04       4    7    1         0.4098080935E-02      0.7887615911E-02

    ------------------------------------------------
       NWT REQUIRED            9 OUTER ITERATIONS 
       AND A TOTAL OF         17 INNER ITERATIONS.
    ------------------------------------------------

 NO OUTPUT CONTROL FOR STRESS PERIOD   34   TIME STEP   23
 
 SOLVING FOR HEAD 
                                                   Max.-Head-Change                         Max.-Flux-Residual
  Residual-Control   Outer-Iter.   Inner-Iter.     Column Row Layer    Maximum-Head-Change  Column Row Layer    Maximum-Flux-Residual          L2-NORM 
          0                 1           2             4    5     1       0.6850655937E-01       4    5    1         0.3734884188E+01      0.9724297494E+01
          0                 2           2             4    5     1      -0.6663973252E-02       4    5    1        -0.3734757243E+00      0.1021872484E+01
          0                 3           2             5    7     1      -0.3664861761E-01       5    7    1        -0.1938502417E+01      0.4693606411E+01
          0                 4           2             4    6     1       0.3361539460E-01       4    6    1         0.1943610994E+01      0.3785403680E+01
          0                 5           2             4    7     1       0.7674276657E-02       4    7    1         0.4185356276E+00      0.8243884022E+00
          0                 6           2             4    7     1       0.2414676697E-02       4    7    1         0.1316006135E+00      0.2576100310E+00
          0                 7           2             4    7     1       0.7596181103E-03       4    7    1         0.4140254616E-01      0.8060629984E-01
          0                 8           2             4    7     1       0.2389186348E-03       4    7    1         0.1302367194E-01      0.2522463881E-01
          0                 9           1             4    7     1       0.7513227950E-04       4    7    1         0.4096016597E-02      0.7894385615E-02

    ------------------------------------------------
       NWT REQUIRED            9 OUTER ITERATIONS 
       AND A TOTAL OF         17 INNER ITERATIONS.
    ------------------------------------------------

 NO OUTPUT CONTROL FOR STRESS PERIOD   34   TIME STEP   24
 
 SOLVING FOR HEAD 
                                                   Max.-Head-Change                         Max.-Flux-Residual
  Residual-Control   Outer-Iter.   Inner-Iter.     Column Row Layer    Maximum-Head-Change  Column Row Layer    Maximum-Flux-Residual          L2-NORM 
          0                 1           2             4    5     1       0.6530107790E-01       4    5    1         0.3559472531E+01      0.9277624111E+01
          0                 2           2             4    5     1      -0.6352244258E-02       4    5    1        -0.3559359280E+00      0.9705480972E+00
          0                 3           2             5    7     1      -0.3654978610E-01       5    7    1        -0.1933110327E+01      0.4686400340E+01
          0                 4           2             4    6     1       0.3361503276E-01       4    6    1         0.1943581293E+01      0.3786879154E+01
          0                 5           2             4    7     1       0.7669896401E-02       4    7    1         0.4182756128E+00      0.8250662611E+00
          0                 6           2             4    7     1       0.2413442731E-02       4    7    1         0.1315269922E+00      0.2578218182E+00
          0                 7           2             4    7     1       0.7592732050E-03       4    7    1         0.4138183591E-01      0.8067243759E-01
          0                 8           2             4    7     1       0.2388231443E-03       4    7    1         0.1301789286E-01      0.2524530415E-01
          0                 9           1             4    8     1       0.7511531435E-04       4    7    1         0.4094419849E-02      0.7900846271E-02

    ------------------------------------------------
       NWT REQUIRED            9 OUTER ITERATIONS 
       AND A TOTAL OF         17 INNER ITERATIONS.
    ------------------------------------------------

 NO OUTPUT CONTROL FOR STRESS PERIOD   34   TIME STEP   25
 
 SOLVING FOR HEAD 
                                                   Max.-Head-Change                         Max.-Flux-Residual
  Residual-Control   Outer-Iter.   Inner-Iter.     Column Row Layer    Maximum-Head-Change  Column Row Layer    Maximum-Flux-Residual          L2-NORM 
          0                 1           2             4    5     1       0.6225772407E-01       4    5    1         0.3392922040E+01      0.8859156075E+01
          0                 2           2             6    7     1      -0.6076356699E-02       4    5    1        -0.3392821003E+00      0.9229859769E+00
          0                 3           2             5    7     1      -0.3645676651E-01       5    7    1        -0.1928038008E+01      0.4679576175E+01
          0                 4           2             4    6     1       0.3361473948E-01       4    6    1         0.1943554214E+01      0.3788286557E+01
          0                 5           2             4    7     1       0.7666439648E-02       4    7    1         0.4180681871E+00      0.8257125870E+00
          0                 6           2             4    7     1       0.2412484004E-02       4    7    1         0.1314690482E+00      0.2580238240E+00
          0                 7           2             4    7     1       0.7590102887E-03       4    7    1         0.4136579744E-01      0.8073554253E-01
          0                 8           2             4    7     1       0.2387520632E-03       4    7    1         0.1301350524E-01      0.2526502816E-01
          0                 9           1             4    8     1       0.7519304082E-04       4    7    1         0.4093237311E-02      0.7907014365E-02

    ------------------------------------------------
       NWT REQUIRED            9 OUTER ITERATIONS 
       AND A TOTAL OF         17 INNER ITERATIONS.
    ------------------------------------------------

 NO OUTPUT CONTROL FOR STRESS PERIOD   34   TIME STEP   26
 
 SOLVING FOR HEAD 
                                                   Max.-Head-Change                         Max.-Flux-Residual
  Residual-Control   Outer-Iter.   Inner-Iter.     Column Row Layer    Maximum-Head-Change  Column Row Layer    Maximum-Flux-Residual          L2-NORM 
          0                 1           2             4    5     1       0.5936830970E-01       4    5    1         0.3234785848E+01      0.8466833478E+01
          0                 2           2             6    7     1      -0.5821096031E-02       4    5    1        -0.3234695710E+00      0.8789475013E+00
          0                 3           2             5    7     1      -0.3636916944E-01       5    7    1        -0.1923263824E+01      0.4673110265E+01
          0                 4           2             4    6     1       0.3361450549E-01       4    6    1         0.1943529427E+01      0.3789628478E+01
          0                 5           2             4    7     1       0.7663801968E-02       4    7    1         0.4179074453E+00      0.8263286635E+00
          0                 6           2             4    7     1       0.2411769112E-02       4    7    1         0.1314250060E+00      0.2582164432E+00
          0                 7           2             4    7     1       0.7588199179E-03       4    7    1         0.4135389677E-01      0.8079573545E-01
          0                 8           2             4    7     1       0.2387025518E-03       4    7    1         0.1301034853E-01      0.2528384788E-01
          0                 9           1             4    8     1       0.7526556185E-04       4    8    1         0.4093359980E-02      0.7912901448E-02

    ------------------------------------------------
       NWT REQUIRED            9 OUTER ITERATIONS 
       AND A TOTAL OF         17 INNER ITERATIONS.
    ------------------------------------------------

 NO OUTPUT CONTROL FOR STRESS PERIOD   34   TIME STEP   27
 
 SOLVING FOR HEAD 
                                                   Max.-Head-Change                         Max.-Flux-Residual
  Residual-Control   Outer-Iter.   Inner-Iter.     Column Row Layer    Maximum-Head-Change  Column Row Layer    Maximum-Flux-Residual          L2-NORM 
          0                 1           2             6    7     1       0.5665243220E-01       4    5    1         0.3084661299E+01      0.8098824317E+01
          0                 2           2             6    7     1      -0.5578529874E-02       4    5    1        -0.3084580894E+00      0.8381237014E+00
          0                 3           2             4    7     1      -0.3630443289E-01       5    7    1        -0.1918769287E+01      0.4666979554E+01
          0                 4           2             4    6     1       0.3361433078E-01       4    6    1         0.1943507116E+01      0.3790908965E+01
          0                 5           2             4    7     1       0.7661892270E-02       4    7    1         0.4177882294E+00      0.8269161725E+00
          0                 6           2             4    7     1       0.2411270710E-02       4    7    1         0.1313933172E+00      0.2584001925E+00
          0                 7           2             4    7     1       0.7586938845E-03       4    7    1         0.4134566916E-01      0.8085317574E-01
          0                 8           2             4    8     1       0.2388248520E-03       4    7    1         0.1300828320E-01      0.2530181248E-01
          0                 9           1             4    8     1       0.7533329399E-04       4    8    1         0.4097073328E-02      0.7918522587E-02

    ------------------------------------------------
       NWT REQUIRED            9 OUTER ITERATIONS 
       AND A TOTAL OF         17 INNER ITERATIONS.
    ------------------------------------------------

 NO OUTPUT CONTROL FOR STRESS PERIOD   34   TIME STEP   28
 
 SOLVING FOR HEAD 
                                                   Max.-Head-Change                         Max.-Flux-Residual
  Residual-Control   Outer-Iter.   Inner-Iter.     Column Row Layer    Maximum-Head-Change  Column Row Layer    Maximum-Flux-Residual          L2-NORM 
          0                 1           2             6    7     1       0.5434182620E-01       4    5    1         0.2942136426E+01      0.7753429441E+01
          0                 2           2             6    7     1      -0.5348016248E-02       4    5    1        -0.2942064714E+00      0.8002372689E+00
          0                 3           2             4    7     1      -0.3632659128E-01       5    7    1        -0.1914536881E+01      0.4661163500E+01
          0                 4           2             4    6     1       0.3361420725E-01       4    6    1         0.1943486980E+01      0.3792130463E+01
          0                 5           2             4    7     1       0.7660624897E-02       4    7    1         0.4177056943E+00      0.8274763276E+00
          0                 6           2             4    7     1       0.2410963046E-02       4    7    1         0.1313725253E+00      0.2585754461E+00
          0                 7           2             4    7     1       0.7586244464E-03       4    7    1         0.4134067672E-01      0.8090797803E-01
          0                 8           2             4    8     1       0.2390273451E-03       4    7    1         0.1300717766E-01      0.2531895715E-01
          0                 9           1             4    8     1       0.7539658527E-04       4    8    1         0.4100540943E-02      0.7923888658E-02

    ------------------------------------------------
       NWT REQUIRED            9 OUTER ITERATIONS 
       AND A TOTAL OF         17 INNER ITERATIONS.
    ------------------------------------------------

 NO OUTPUT CONTROL FOR STRESS PERIOD   34   TIME STEP   29
 
 SOLVING FOR HEAD 
                                                   Max.-Head-Change                         Max.-Flux-Residual
  Residual-Control   Outer-Iter.   Inner-Iter.     Column Row Layer    Maximum-Head-Change  Column Row Layer    Maximum-Flux-Residual          L2-NORM 
          0                 1           2             6    7     1       0.5214572563E-01       6    7    1         0.2818841926E+01      0.7429106946E+01
          0                 2           2             6    7     1      -0.5128979706E-02       6    7    1        -0.2818871630E+00      0.7653942434E+00
          0                 3           2             4    7     1      -0.3634166796E-01       5    7    1        -0.1910549539E+01      0.4655644712E+01
          0                 4           2             4    6     1       0.3361412537E-01       4    6    1         0.1943468615E+01      0.3793294953E+01
          0                 5           2             4    7     1       0.7659922893E-02       4    7    1         0.4176554925E+00      0.8280101619E+00
          0                 6           2             4    7     1       0.2410822959E-02       4    7    1         0.1313613216E+00      0.2587425093E+00
          0                 7           2             4    7     1       0.7586046330E-03       4    7    1         0.4133852566E-01      0.8096023319E-01
          0                 8           2             4    8     1       0.2392162409E-03       4    8    1         0.1300710290E-01      0.2533530930E-01
          0                 9           1             4    8     1       0.7545566732E-04       4    8    1         0.4103776175E-02      0.7929007606E-02

    ------------------------------------------------
       NWT REQUIRED            9 OUTER ITERATIONS 
       AND A TOTAL OF         17 INNER ITERATIONS.
    ------------------------------------------------

 NO OUTPUT CONTROL FOR STRESS PERIOD   34   TIME STEP   30



 STREAM LISTING     PERIOD     34   STEP       30

 LAYER ROW COL. STREAM  RCH.  FLOW INTO     FLOW TO   FLOW OUT OF   OVRLND.     DIRECT     STREAM       STREAM     STREAM     STREAM   STREAMBED  STREAMBED
                SEG.NO.  NO.  STRM. RCH.    AQUIFER    STRM. RCH.    RUNOFF     PRECIP       ET          HEAD       DEPTH      WIDTH   CONDCTNC.   GRADIENT

   1    1    1     1     1    1.7624E+01  2.0521E-01   1.7419E+01  0.000E+00  0.000E+00  0.000E+00  1.09411E+03  1.059E+00  1.124E+01  5.056E-02  1.353E+00
   1    2    2     1     2    1.7419E+01  3.1648E-01   1.7103E+01  0.000E+00  0.000E+00  0.000E+00  1.08911E+03  1.054E+00  1.115E+01  7.807E-02  1.351E+00
   1    3    3     1     3    1.7103E+01  2.6863E-01   1.6834E+01  0.000E+00  0.000E+00  0.000E+00  1.08347E+03  1.049E+00  1.106E+01  6.635E-02  1.350E+00
   1    3    4     1     4    1.6834E+01  2.4632E-01   1.6588E+01  0.000E+00  0.000E+00  0.000E+00  1.07845E+03  1.044E+00  1.097E+01  6.091E-02  1.348E+00
   1    4    5     2     1    1.4588E+01  3.0175E-01   1.4286E+01  0.000E+00  0.000E+00  0.000E+00  1.07280E+03  8.686E-01  1.200E+01  7.800E-02  1.290E+00
   1    5    6     2     2    1.4286E+01  2.3154E-01   1.4055E+01  0.000E+00  0.000E+00  0.000E+00  1.06737E+03  8.590E-01  1.200E+01  6.000E-02  1.286E+00
   1    6    6     2     3    1.4055E+01  2.3103E-01   1.3824E+01  0.000E+00  0.000E+00  0.000E+00  1.06264E+03  8.505E-01  1.200E+01  6.000E-02  1.284E+00
   1    7    6     2     4    1.3824E+01  2.3052E-01   1.3593E+01  0.000E+00  0.000E+00  0.000E+00  1.05792E+03  8.420E-01  1.200E+01  6.000E-02  1.281E+00
   1    8    6     2     5    1.3593E+01  2.3001E-01   1.3363E+01  0.000E+00  0.000E+00  0.000E+00  1.05319E+03  8.335E-01  1.200E+01  6.000E-02  1.278E+00
   1    3    5     3     1    2.0000E+00  2.8252E-01   1.7175E+00  0.000E+00  0.000E+00  0.000E+00  1.07555E+03  1.909E+00  9.636E+00  7.227E-02  1.955E+00
   1    3    6     3     2    1.7175E+00  2.4905E-01   1.4684E+00  0.000E+00  0.000E+00  0.000E+00  1.07264E+03  1.727E+00  8.909E+00  6.682E-02  1.864E+00
   1    3    7     3     3    1.4684E+00  1.9718E-01   1.2712E+00  0.000E+00  0.000E+00  0.000E+00  1.06987E+03  1.555E+00  8.218E+00  5.547E-02  1.777E+00
   1    4    8     3     4    1.2712E+00  2.2567E-01   1.0456E+00  0.000E+00  0.000E+00  0.000E+00  1.06682E+03  1.364E+00  7.455E+00  6.709E-02  1.682E+00
   1    5    8     3     5    1.0456E+00  1.5790E-01   8.8768E-01  0.000E+00  0.000E+00  0.000E+00  1.06362E+03  1.164E+00  6.655E+00  4.991E-02  1.582E+00
   1    6    8     3     6    8.8768E-01  5.5980E-02   8.3170E-01  0.000E+00  0.000E+00  0.000E+00  1.06158E+03  1.036E+00  6.145E+00  1.844E-02  1.518E+00
   1    5   10     4     1    1.0000E+01  9.0919E-02   9.9091E+00  0.000E+00  0.000E+00  0.000E+00  1.07836E+03  6.368E-01  1.000E+01  2.500E-02  1.212E+00
   1    5    9     4     2    9.9091E+00  1.8158E-01   9.7275E+00  0.000E+00  0.000E+00  0.000E+00  1.07154E+03  6.315E-01  1.000E+01  5.000E-02  1.211E+00
   1    6    8     4     3    9.7275E+00  1.2689E-01   9.6006E+00  0.000E+00  0.000E+00  0.000E+00  1.06381E+03  6.256E-01  1.000E+01  3.500E-02  1.209E+00
   1    6    8     5     1    1.0432E+01  2.2686E-01   1.0205E+01  0.000E+00  0.000E+00  0.000E+00  1.05868E+03  6.790E-01  1.542E+01  6.166E-02  1.226E+00
   1    7    7     5     2    1.0205E+01  2.7894E-01   9.9265E+00  0.000E+00  0.000E+00  0.000E+00  1.05417E+03  6.732E-01  1.519E+01  7.594E-02  1.224E+00
   1    8    7     5     3    9.9265E+00  1.9221E-01   9.7343E+00  0.000E+00  0.000E+00  0.000E+00  1.04992E+03  6.676E-01  1.497E+01  5.241E-02  1.223E+00
   1    8    6     5     4    9.7343E+00  1.3577E-01   9.5985E+00  0.000E+00  0.000E+00  0.000E+00  1.04691E+03  6.637E-01  1.482E+01  3.706E-02  1.221E+00
   1    9    6     6     1    1.1753E+01  2.2631E-01   1.1527E+01  0.000E+00  0.000E+00  0.000E+00  1.04350E+03  7.719E-01  1.200E+01  6.000E-02  1.257E+00
   1   10    7     6     2    1.1527E+01  2.2577E-01   1.1301E+01  0.000E+00  0.000E+00  0.000E+00  1.03894E+03  7.629E-01  1.200E+01  6.000E-02  1.254E+00
   1   11    7     6     3    1.1301E+01  2.2523E-01   1.1076E+01  0.000E+00  0.000E+00  0.000E+00  1.03439E+03  7.538E-01  1.200E+01  6.000E-02  1.251E+00
   1   12    7     6     4    1.1076E+01  2.2468E-01   1.0852E+01  0.000E+00  0.000E+00  0.000E+00  1.02984E+03  7.446E-01  1.200E+01  6.000E-02  1.248E+00
   1   13    7     6     5    1.0852E+01  3.9286E-03   1.0848E+01  0.000E+00  0.000E+00  0.000E+00  1.02665E+03  7.400E-01  1.200E+01  2.400E-02  5.456E-02
   1   14    9     7     1    1.5000E+02  1.4035E+00   1.4860E+02  0.000E+00  0.000E+00  0.000E+00  1.03987E+03  2.288E+00  5.529E+01  5.593E-01  8.364E-01
   1   13    8     7     2    1.4860E+02  2.0343E+00   1.4656E+02  0.000E+00  0.000E+00  0.000E+00  1.03478E+03  2.278E+00  5.525E+01  6.147E-01  1.103E+00
   1   13    7     7     3    1.4656E+02  1.7879E+00   1.4477E+02  0.000E+00  0.000E+00  0.000E+00  1.02969E+03  2.268E+00  5.521E+01  5.583E-01  1.067E+00
   1   13    6     8     1    1.5562E+02  1.1457E+00   1.5448E+02  0.000E+00  0.000E+00  0.000E+00  1.02473E+03  2.852E+00  4.135E+01  4.214E-01  9.062E-01
   1   13    5     8     2    1.5448E+02  3.9197E-01   1.5408E+02  0.000E+00  0.000E+00  0.000E+00  1.01847E+03  2.847E+00  4.128E+01  4.206E-01  3.106E-01
   1   13    4     8     3    1.5408E+02 -1.6849E+00   1.5577E+02  0.000E+00  0.000E+00  0.000E+00  1.01223E+03  2.851E+00  4.134E+01  4.213E+00 -1.333E-01
   1   13    3     8     4    1.5577E+02 -3.2733E+00   1.5904E+02  0.000E+00  0.000E+00  0.000E+00  1.00599E+03  2.868E+00  4.159E+01  4.238E+00 -2.575E-01
   1   13    2     8     5    1.5904E+02 -2.4835E+00   1.6153E+02  0.000E+00  0.000E+00  0.000E+00  9.99763E+02  2.888E+00  4.187E+01  4.267E+00 -1.940E-01
   1   13    1     8     6    1.6153E+02 -1.9538E+00   1.6348E+02  0.000E+00  0.000E+00  0.000E+00  9.94778E+02  2.903E+00  4.209E+01  2.573E+00 -2.531E-01
   1    8    6     9     1    1.1208E+01  0.0000E+00   1.1208E+01  0.000E+00  0.000E+00  0.000E+00  1.08118E+03  2.427E+00  4.000E+00  0.000E+00  1.809E+00
   1    8    5     9     2    1.1208E+01  0.0000E+00   1.1208E+01  0.000E+00  0.000E+00  0.000E+00  1.08068E+03  2.427E+00  4.000E+00  0.000E+00  1.809E+00





UNSATURATED ZONE PACKAGE VOLUMETRIC BUDGET FOR  TIME STEP    30 STRESS PERIOD   34
  ------------------------------------------------------------------------------



     CUMULATIVE VOLUMES      L**3       RATES FOR THIS TIME STEP      L**3/T
     ------------------                 ------------------------

           IN:                                      IN:
           ---                                      ---
        INFILTRATION =  6207317597.8130          INFILTRATION =          12.0557

          OUT:                                     OUT:
          ----                                     ----
              UZF ET =  1279743351.1915                UZF ET =          12.0675
        UZF RECHARGE =  4422331423.7015          UZF RECHARGE =           4.8832

            IN - OUT =   505242822.9200              IN - OUT =          -4.8950

          STORAGE:                                 STORAGE:
          --------                                 --------
      STORAGE CHANGE =   505278506.3095        STORAGE CHANGE =          -4.8950

 PERCENT DISCREPANCY IS DIFFERENCE BETWEEN IN-OUT MINUS CHANGE IN STORAGE
 DIVIDED BY THE AVERAGE OF IN AND OUT TIMES 100

 PERCENT DISCREPANCY =          -0.00     PERCENT DISCREPANCY =           0.00






1
  VOLUMETRIC BUDGET FOR AGRICULTURAL FIELDS AT  END OF TIME STEP   30, STRESS PERIOD  34
  ------------------------------------------------------------------------------

     CUMULATIVE VOLUMES      L**3       RATES FOR THIS TIME STEP      L**3/T
     ------------------                 ------------------------

           IN:                                      IN:
           ---                                      ---
               AG WELLS  =  5348712448.0000                 AG WELLS  =           0.0000
      DIVERSION SEGMENTS =   784967360.0000        DIVERSION SEGMENTS =          11.2080
           GW IRRIGATION =           0.0000             GW IRRIGATION =           0.0000
           SW IRRIGATION =           0.0000             SW IRRIGATION =           0.0000
        SYSTEM LOSSES GW =           0.0000          SYSTEM LOSSES GW =           0.0000
        SYSTEM LOSSES SW =           0.0000          SYSTEM LOSSES SW =           0.0000

                TOTAL IN =  6133679616.0000                  TOTAL IN =          11.2080

          OUT:                                     OUT:
          ----                                     ----
               AG WELLS  =           0.0000                 AG WELLS  =           0.0000
      DIVERSION SEGMENTS =           0.0000        DIVERSION SEGMENTS =           0.0000
           GW IRRIGATION =  5348712448.0000             GW IRRIGATION =           0.0000
           SW IRRIGATION =   784982656.0000             SW IRRIGATION =          11.2082
        SYSTEM LOSSES GW =           0.0000          SYSTEM LOSSES GW =           0.0000
        SYSTEM LOSSES SW =           0.0000          SYSTEM LOSSES SW =           0.0000

               TOTAL OUT =  6133694976.0000                 TOTAL OUT =          11.2082

                IN - OUT =      -15360.0000                  IN - OUT =      -2.2411E-04

     PERCENT DISCREPANCY =          -0.00         PERCENT DISCREPANCY =          -0.00



1
  VOLUMETRIC BUDGET FOR ENTIRE MODEL AT END OF TIME STEP   30, STRESS PERIOD  34
  ------------------------------------------------------------------------------

     CUMULATIVE VOLUMES      L**3       RATES FOR THIS TIME STEP      L**3/T
     ------------------                 ------------------------

           IN:                                      IN:
           ---                                      ---
             STORAGE     =  5251608576.0000               STORAGE     =          13.4363
       CONSTANT HEAD     =           0.0000         CONSTANT HEAD     =           0.0000
     HEAD DEP BOUNDS     =    25086818.0000       HEAD DEP BOUNDS     =           0.2904
      STREAM LEAKAGE     =  1047275712.0000        STREAM LEAKAGE     =          12.3322
        UZF RECHARGE     =  4422331392.0000          UZF RECHARGE     =           4.8832
               GW ET     =           0.0000                 GW ET     =           0.0000
     SURFACE LEAKAGE     =           0.0000       SURFACE LEAKAGE     =           0.0000
           AG WELLS      =           0.0000             AG WELLS      =           0.0000

                TOTAL IN = 10746302464.0000                  TOTAL IN =          30.9421

          OUT:                                     OUT:
          ----                                     ----
             STORAGE     =  4525610496.0000               STORAGE     =          21.2551
       CONSTANT HEAD     =           0.0000         CONSTANT HEAD     =           0.0000
     HEAD DEP BOUNDS     =    24958604.0000       HEAD DEP BOUNDS     =           0.2864
      STREAM LEAKAGE     =   846930688.0000        STREAM LEAKAGE     =           9.3955
        UZF RECHARGE     =           0.0000          UZF RECHARGE     =           0.0000
               GW ET     =           0.0000                 GW ET     =           0.0000
     SURFACE LEAKAGE     =           0.0000       SURFACE LEAKAGE     =           0.0000
           AG WELLS      =  5348712448.0000             AG WELLS      =           0.0000

               TOTAL OUT = 10746212352.0000                 TOTAL OUT =          30.9371

                IN - OUT =       90112.0000                  IN - OUT =       4.9877E-03

     PERCENT DISCREPANCY =           0.00         PERCENT DISCREPANCY =           0.02






         TIME SUMMARY AT END OF TIME STEP   30 IN STRESS PERIOD   34
                    SECONDS     MINUTES      HOURS       DAYS        YEARS
                    -----------------------------------------------------------
   TIME STEP LENGTH  87667.      1461.1      24.352      1.0147     2.77799E-03
 STRESS PERIOD TIME 2.63000E+06  43833.      730.56      30.440     8.33397E-02
         TOTAL TIME 8.68762E+07 1.44794E+06  24132.      1005.5      2.7529    
1
1
                            STRESS PERIOD NO.   35, LENGTH =   2630000.    
                            -----------------------------------------------

                              NUMBER OF TIME STEPS =    30

                               MULTIPLIER FOR DELT =     1.000

                            INITIAL TIME STEP SIZE =   87666.66    

 REUSING NON-PARAMETER GHB CELLS FROM LAST STRESS PERIOD

      2 GHB CELLS

 REUSING STREAM SEGMENT DATA FROM LAST STRESS PERIOD



            AREAL INFILTRATION RATE
 READING ON UNIT   19 WITH FORMAT: (FREE)              

            1           2           3           4           5           6           7           8           9          10
 ........................................................................................................................
   1   1.0000E-10  2.0000E-10   0.000       0.000       0.000       0.000       0.000       0.000       0.000       0.000    
   2   2.0000E-10  1.0000E-10  2.0000E-10   0.000       0.000      8.0000E-10  8.0000E-10  5.0000E-10   0.000       0.000    
   3    0.000      5.0000E-10  1.0000E-10  1.0000E-10  8.0000E-10  8.0000E-10  5.0000E-10  5.0000E-10   0.000       0.000    
   4   8.0000E-10  5.0000E-10  1.0000E-10  1.0000E-10  1.0000E-10  1.0000E-10  1.0000E-10  1.0000E-10  2.0000E-10   0.000    
   5   8.0000E-10  5.0000E-10  1.0000E-10  1.0000E-10  1.0000E-10  1.0000E-10  1.0000E-10  1.0000E-10  1.0000E-10  1.0000E-10
   6   8.0000E-10  5.0000E-10  5.0000E-10  2.0000E-10  2.0000E-10  1.0000E-10  1.0000E-10  1.0000E-10  1.0000E-10  5.0000E-10
   7   8.0000E-10  5.0000E-10  5.0000E-10  2.0000E-10  2.0000E-10  1.0000E-10  1.0000E-10  2.0000E-10  2.0000E-10   0.000    
   8    0.000      5.0000E-10  5.0000E-10  2.0000E-10  2.0000E-10  1.0000E-10  1.0000E-10  2.0000E-10  5.0000E-10   0.000    
   9    0.000      5.0000E-10  5.0000E-10  2.0000E-10  2.0000E-10  1.0000E-10  1.0000E-10  2.0000E-10  5.0000E-10   0.000    
  10    0.000      5.0000E-10  5.0000E-10  2.0000E-10  2.0000E-10  1.0000E-10  1.0000E-10  2.0000E-10  5.0000E-10  8.0000E-10
  11    0.000      1.0000E-10  1.0000E-10  1.0000E-10  1.0000E-10  1.0000E-10  1.0000E-10  2.0000E-10  5.0000E-10   0.000    
  12   1.0000E-10  1.0000E-10  1.0000E-10  1.0000E-10  1.0000E-10  1.0000E-10  1.0000E-10  1.0000E-10  2.0000E-10   0.000    
  13   1.0000E-10  1.0000E-10  2.0000E-10  2.0000E-10  2.0000E-10  2.0000E-10  2.0000E-10  1.0000E-10  1.0000E-10   0.000    
  14    0.000      2.0000E-10  5.0000E-10  5.0000E-10  5.0000E-10  5.0000E-10  5.0000E-10  2.0000E-10  1.0000E-10   0.000    
  15    0.000       0.000      8.0000E-10  8.0000E-10  8.0000E-10  8.0000E-10   0.000       0.000       0.000       0.000    

                  ET RATE =  5.000000E-09

 USING ET EXTINCTION DEPTH FROM PREVIOUS STRESS PERIOD. CURRENT PERIOD IS:      35

 USING EXTINCTION WATER CONTENT FROM PREVIOUS STRESS PERIOD. CURRENT PERIOD IS:      35

 USING AIR ENTRY PRESSURE FROM PREVIOUS STRESS PERIOD. CURRENT PERIOD IS:      35

 USING ROOT PRESSURE HEAD FROM PREVIOUS STRESS PERIOD. CURRENT PERIOD IS:      35

 USING ROOT ACTIVITY FROM PREVIOUS STRESS PERIOD. CURRENT PERIOD IS:      35

 PROCESSING AG STRESS PERIOD DATA

 READING AG STRESS PERIOD DATA

 READING IRRIGATION SEGMENT

 READING IRRIGATION WELL

 READING SUPPLEMENTAL WELL

 END PROCESSING AG STRESS PERIOD DATA OPTIONS
 
 SOLVING FOR HEAD 
                                                   Max.-Head-Change                         Max.-Flux-Residual
  Residual-Control   Outer-Iter.   Inner-Iter.     Column Row Layer    Maximum-Head-Change  Column Row Layer    Maximum-Flux-Residual          L2-NORM 
          0                 1           2             6    7     1       0.5005845032E-01       6    7    1         0.2705138572E+01      0.7122275057E+01
          0                 2           2             6    7     1      -0.4920844782E-02       6    7    1        -0.2705166759E+00      0.7321111066E+00
          0                 3           2             5    7     1      -0.7111492678E-03       5    7    1        -0.3876950115E-01      0.7274578326E-01
          0                 4           2             5    7     1      -0.2029416111E-03       5    7    1        -0.1103401395E-01      0.1554945397E-01
          0                 5           1             5    7     1      -0.5797010046E-04       5    7    1        -0.3150219339E-02      0.4484300989E-02

    ------------------------------------------------
       NWT REQUIRED            5 OUTER ITERATIONS 
       AND A TOTAL OF          9 INNER ITERATIONS.
    ------------------------------------------------

 NO OUTPUT CONTROL FOR STRESS PERIOD   35   TIME STEP    1
 
 SOLVING FOR HEAD 
                                                   Max.-Head-Change                         Max.-Flux-Residual
  Residual-Control   Outer-Iter.   Inner-Iter.     Column Row Layer    Maximum-Head-Change  Column Row Layer    Maximum-Flux-Residual          L2-NORM 
          0                 1           2             3    7     1       0.4801639729E-01       6    7    1         0.2591307304E+01      0.6825733417E+01
          0                 2           2             5    7     1      -0.7968035816E-02       5    7    1        -0.4237400419E+00      0.9764338779E+00
          0                 3           2             4    6     1       0.5643383278E-02       5    6    1         0.3110187451E+00      0.5832384704E+00
          0                 4           2             5    8     1       0.1167759529E-02       5    8    1         0.6446990908E-01      0.1252983841E+00
          0                 5           2             4    8     1       0.3658233733E-03       5    8    1         0.1996659459E-01      0.3790790481E-01
          0                 6           2             4    8     1       0.1153444347E-03       4    8    1         0.6275636200E-02      0.1185831319E-01
          0                 7           1             4    8     1       0.3635629482E-04       4    8    1         0.1978533039E-02      0.3710658393E-02

    ------------------------------------------------
       NWT REQUIRED            7 OUTER ITERATIONS 
       AND A TOTAL OF         13 INNER ITERATIONS.
    ------------------------------------------------

 NO OUTPUT CONTROL FOR STRESS PERIOD   35   TIME STEP    2
 
 SOLVING FOR HEAD 
                                                   Max.-Head-Change                         Max.-Flux-Residual
  Residual-Control   Outer-Iter.   Inner-Iter.     Column Row Layer    Maximum-Head-Change  Column Row Layer    Maximum-Flux-Residual          L2-NORM 
          0                 1           2             3    7     1       0.4712444576E-01       6    7    1         0.2484387533E+01      0.6549341510E+01
          0                 2           2             3    7     1      -0.4609829030E-02       6    7    1        -0.2484412659E+00      0.6716504469E+00
          0                 3           2             4    7     1      -0.5959615030E-03       5    7    1        -0.3187876753E-01      0.6483473114E-01
          0                 4           2             4    7     1      -0.1737814816E-03       4    7    1        -0.9308168145E-02      0.1343276408E-01
          0                 5           1             4    7     1      -0.5066869957E-04       4    7    1        -0.2712508054E-02      0.3852908943E-02

    ------------------------------------------------
       NWT REQUIRED            5 OUTER ITERATIONS 
       AND A TOTAL OF          9 INNER ITERATIONS.
    ------------------------------------------------

 NO OUTPUT CONTROL FOR STRESS PERIOD   35   TIME STEP    3
 
 SOLVING FOR HEAD 
                                                   Max.-Head-Change                         Max.-Flux-Residual
  Residual-Control   Outer-Iter.   Inner-Iter.     Column Row Layer    Maximum-Head-Change  Column Row Layer    Maximum-Flux-Residual          L2-NORM 
          0                 1           2             3    7     1       0.4624727300E-01       6    7    1         0.2387106387E+01      0.6294902485E+01
          0                 2           2             3    7     1      -0.4545409132E-02       6    7    1        -0.2387130151E+00      0.6775966888E+00
          0                 3           2             5    6     1       0.2006717954E-02       5    6    1         0.1112406748E+00      0.2081686082E+00
          0                 4           2             5    8     1       0.4680467468E-03       5    8    1         0.2670760086E-01      0.4423234779E-01
          0                 5           2             5    8     1       0.1530789920E-03       5    8    1         0.8738141835E-02      0.1365899813E-01
          0                 6           1             5    8     1       0.5001014104E-04       5    8    1         0.2857143513E-02      0.4367914156E-02

    ------------------------------------------------
       NWT REQUIRED            6 OUTER ITERATIONS 
       AND A TOTAL OF         11 INNER ITERATIONS.
    ------------------------------------------------

 NO OUTPUT CONTROL FOR STRESS PERIOD   35   TIME STEP    4
 
 SOLVING FOR HEAD 
                                                   Max.-Head-Change                         Max.-Flux-Residual
  Residual-Control   Outer-Iter.   Inner-Iter.     Column Row Layer    Maximum-Head-Change  Column Row Layer    Maximum-Flux-Residual          L2-NORM 
          0                 1           2             3    7     1       0.4538752990E-01       6    7    1         0.2294611037E+01      0.5872935072E+01
          0                 2           2             4    6     1      -0.6564660694E-02       4    6    1        -0.3543793707E+00      0.6869267872E+00
          0                 3           2             4    6     1      -0.4053609088E-02       4    6    1        -0.2172238491E+00      0.3656765411E+00
          0                 4           2             5    6     1       0.2035801310E-02       5    6    1         0.1199745258E+00      0.2080715959E+00
          0                 5           2             5    8     1       0.4673917360E-03       5    8    1         0.2653022894E-01      0.4897580644E-01
          0                 6           2             5    8     1       0.1536754358E-03       5    8    1         0.8735215371E-02      0.1558409799E-01
          0                 7           1             5    8     1       0.5044854879E-04       5    8    1         0.2871133464E-02      0.4967017325E-02

    ------------------------------------------------
       NWT REQUIRED            7 OUTER ITERATIONS 
       AND A TOTAL OF         13 INNER ITERATIONS.
    ------------------------------------------------

 NO OUTPUT CONTROL FOR STRESS PERIOD   35   TIME STEP    5
 
 SOLVING FOR HEAD 
                                                   Max.-Head-Change                         Max.-Flux-Residual
  Residual-Control   Outer-Iter.   Inner-Iter.     Column Row Layer    Maximum-Head-Change  Column Row Layer    Maximum-Flux-Residual          L2-NORM 
          0                 1           2             3    7     1       0.4454335789E-01       6    7    1         0.2206709794E+01      0.5549682557E+01
          0                 2           2             3    7     1      -0.4357031879E-02       6    7    1        -0.2206731026E+00      0.5798727216E+00
          0                 3           2             4    6     1      -0.2857731043E-02       4    6    1        -0.1520879690E+00      0.3277553903E+00
          0                 4           2             5    6     1       0.2048477553E-02       5    6    1         0.1207687682E+00      0.2092207776E+00
          0                 5           2             4    7     1      -0.1107376589E-01       5    6    1        -0.6359739595E+00      0.1513225375E+01
          0                 6           2             5    6     1       0.1004921804E-01       5    6    1         0.6241665566E+00      0.1143767580E+01
          0                 7           2             4    7     1       0.2687150720E-02       5    8    1         0.1549130971E+00      0.3424408639E+00
          0                 8           2             4    7     1       0.9572853294E-03       5    8    1         0.5667774310E-01      0.1209061807E+00
          0                 9           2             5    8     1       0.3451825935E-03       5    8    1         0.2070790504E-01      0.4281047095E-01
          0                10           2             5    8     1       0.1258219436E-03       5    8    1         0.7556373873E-02      0.1516829741E-01
          0                11           1             5    8     1       0.4581488530E-04       5    8    1         0.2754180183E-02      0.5377749433E-02

    ------------------------------------------------
       NWT REQUIRED           11 OUTER ITERATIONS 
       AND A TOTAL OF         21 INNER ITERATIONS.
    ------------------------------------------------

 NO OUTPUT CONTROL FOR STRESS PERIOD   35   TIME STEP    6
 
 SOLVING FOR HEAD 
                                                   Max.-Head-Change                         Max.-Flux-Residual
  Residual-Control   Outer-Iter.   Inner-Iter.     Column Row Layer    Maximum-Head-Change  Column Row Layer    Maximum-Flux-Residual          L2-NORM 
          0                 1           2             3    7     1       0.4372187445E-01       6    7    1         0.2123182263E+01      0.5357087266E+01
          0                 2           2             3    7     1      -0.4275505486E-02       6    7    1        -0.2123202335E+00      0.5577434106E+00
          0                 3           2             4    6     1      -0.6067614416E-03       4    6    1        -0.3278537816E-01      0.6115555235E-01
          0                 4           2             4    6     1      -0.1756688753E-03       4    6    1        -0.9447711618E-02      0.1408347876E-01
          0                 5           1             4    6     1      -0.5087371934E-04       4    6    1        -0.2736891857E-02      0.4056191699E-02

    ------------------------------------------------
       NWT REQUIRED            5 OUTER ITERATIONS 
       AND A TOTAL OF          9 INNER ITERATIONS.
    ------------------------------------------------

 NO OUTPUT CONTROL FOR STRESS PERIOD   35   TIME STEP    7
 
 SOLVING FOR HEAD 
                                                   Max.-Head-Change                         Max.-Flux-Residual
  Residual-Control   Outer-Iter.   Inner-Iter.     Column Row Layer    Maximum-Head-Change  Column Row Layer    Maximum-Flux-Residual          L2-NORM 
          0                 1           2             3    7     1       0.4292183399E-01       6    7    1         0.2043853939E+01      0.5176166771E+01
          0                 2           2             3    7     1      -0.4196055587E-02       6    7    1        -0.2043872914E+00      0.5372594015E+00
          0                 3           2             4    6     1      -0.5460012595E-03       4    6    1        -0.2950757303E-01      0.5740074087E-01
          0                 4           2             4    6     1      -0.1581434120E-03       4    6    1        -0.8502011690E-02      0.1296150313E-01
          0                 5           1             4    6     1      -0.4581503653E-04       4    6    1        -0.2464114344E-02      0.3721191974E-02

    ------------------------------------------------
       NWT REQUIRED            5 OUTER ITERATIONS 
       AND A TOTAL OF          9 INNER ITERATIONS.
    ------------------------------------------------

 NO OUTPUT CONTROL FOR STRESS PERIOD   35   TIME STEP    8
 
 SOLVING FOR HEAD 
                                                   Max.-Head-Change                         Max.-Flux-Residual
  Residual-Control   Outer-Iter.   Inner-Iter.     Column Row Layer    Maximum-Head-Change  Column Row Layer    Maximum-Flux-Residual          L2-NORM 
          0                 1           2             3    7     1       0.4214239610E-01       6    7    1         0.1968491971E+01      0.5006569532E+01
          0                 2           2             3    7     1      -0.4118605875E-02       6    7    1        -0.1968509914E+00      0.5183561594E+00
          0                 3           2             4    6     1      -0.4882522766E-03       4    6    1        -0.2639352904E-01      0.5410152716E-01
          0                 4           2             4    6     1      -0.1414760549E-03       4    6    1        -0.7603038442E-02      0.1198302906E-01
          0                 5           1             4    6     1      -0.4100111414E-04       4    6    1        -0.2204651394E-02      0.3428272280E-02

    ------------------------------------------------
       NWT REQUIRED            5 OUTER ITERATIONS 
       AND A TOTAL OF          9 INNER ITERATIONS.
    ------------------------------------------------

 NO OUTPUT CONTROL FOR STRESS PERIOD   35   TIME STEP    9
 
 SOLVING FOR HEAD 
                                                   Max.-Head-Change                         Max.-Flux-Residual
  Residual-Control   Outer-Iter.   Inner-Iter.     Column Row Layer    Maximum-Head-Change  Column Row Layer    Maximum-Flux-Residual          L2-NORM 
          0                 1           2             3    7     1       0.4138318788E-01       6    7    1         0.1896912157E+01      0.4804692515E+01
          0                 2           2             3    7     1      -0.4043315166E-02       6    7    1        -0.1896929166E+00      0.5021935068E+00
          0                 3           2             4    6     1      -0.7588252423E-03       4    6    1        -0.4096697951E-01      0.7262973925E-01
          0                 4           2             4    7     1      -0.9552563346E-02       4    6    1        -0.4996630103E+00      0.1215475976E+01
          0                 5           2             5    6     1       0.9941106442E-02       5    6    1         0.5539905668E+00      0.9676907220E+00
          0                 6           2             4    7     1       0.2115727082E-02       4    8    1         0.1172347420E+00      0.2601429269E+00
          0                 7           2             4    8     1       0.7018219646E-03       4    8    1         0.3924159601E-01      0.8247019278E-01
          0                 8           2             4    8     1       0.2344911743E-03       4    8    1         0.1312175052E-01      0.2654452310E-01
          0                 9           1             4    8     1       0.7827472623E-04       4    8    1         0.4383427818E-02      0.8558648385E-02

    ------------------------------------------------
       NWT REQUIRED            9 OUTER ITERATIONS 
       AND A TOTAL OF         17 INNER ITERATIONS.
    ------------------------------------------------

 NO OUTPUT CONTROL FOR STRESS PERIOD   35   TIME STEP   10
 
 SOLVING FOR HEAD 
                                                   Max.-Head-Change                         Max.-Flux-Residual
  Residual-Control   Outer-Iter.   Inner-Iter.     Column Row Layer    Maximum-Head-Change  Column Row Layer    Maximum-Flux-Residual          L2-NORM 
          0                 1           2             3    7     1       0.4064360970E-01       6    7    1         0.1828890578E+01      0.4593147865E+01
          0                 2           2             3    7     1      -0.3969481394E-02       6    7    1        -0.1828906842E+00      0.4783943635E+00
          0                 3           2             4    7     1      -0.3635825457E-03       4    7    1        -0.1964892171E-01      0.5068417247E-01
          0                 4           1             4    7     1      -0.1051491572E-03       4    7    1        -0.5661413564E-02      0.1116647372E-01
          0                 5           1             4    7     1      -0.3039027968E-04       4    7    1        -0.1637894680E-02      0.3120939707E-02

    ------------------------------------------------
       NWT REQUIRED            5 OUTER ITERATIONS 
       AND A TOTAL OF          8 INNER ITERATIONS.
    ------------------------------------------------

 NO OUTPUT CONTROL FOR STRESS PERIOD   35   TIME STEP   11
 
 SOLVING FOR HEAD 
                                                   Max.-Head-Change                         Max.-Flux-Residual
  Residual-Control   Outer-Iter.   Inner-Iter.     Column Row Layer    Maximum-Head-Change  Column Row Layer    Maximum-Flux-Residual          L2-NORM 
          0                 1           2             3    7     1       0.3992458236E-01       6    7    1         0.1765073545E+01      0.4490763923E+01
          0                 2           2             3    7     1      -0.3897795014E-02       6    7    1        -0.1765089152E+00      0.4759424558E+00
          0                 3           2             5    6     1       0.5836107862E-03       5    6    1         0.3224915669E-01      0.5511264738E-01
          0                 4           2             5    6     1       0.1612750150E-03       5    6    1         0.8993052529E-02      0.1282050047E-01
          0                 5           1             5    6     1       0.4458403325E-04       5    6    1         0.2482125429E-02      0.3563704592E-02

    ------------------------------------------------
       NWT REQUIRED            5 OUTER ITERATIONS 
       AND A TOTAL OF          9 INNER ITERATIONS.
    ------------------------------------------------

 NO OUTPUT CONTROL FOR STRESS PERIOD   35   TIME STEP   12
 
 SOLVING FOR HEAD 
                                                   Max.-Head-Change                         Max.-Flux-Residual
  Residual-Control   Outer-Iter.   Inner-Iter.     Column Row Layer    Maximum-Head-Change  Column Row Layer    Maximum-Flux-Residual          L2-NORM 
          0                 1           2             3    7     1       0.3922535738E-01       6    7    1         0.1705257573E+01      0.4385318071E+01
          0                 2           2             3    7     1      -0.3828012877E-02       6    7    1        -0.1705272539E+00      0.4650660604E+00
          0                 3           2             5    6     1       0.5818476981E-03       5    6    1         0.3204387107E-01      0.5382144453E-01
          0                 4           2             5    6     1       0.1615664168E-03       5    6    1         0.8976685639E-02      0.1257781686E-01
          0                 5           1             5    6     1       0.4489048768E-04       5    6    1         0.2489695125E-02      0.3507950240E-02

    ------------------------------------------------
       NWT REQUIRED            5 OUTER ITERATIONS 
       AND A TOTAL OF          9 INNER ITERATIONS.
    ------------------------------------------------

 NO OUTPUT CONTROL FOR STRESS PERIOD   35   TIME STEP   13
 
 SOLVING FOR HEAD 
                                                   Max.-Head-Change                         Max.-Flux-Residual
  Residual-Control   Outer-Iter.   Inner-Iter.     Column Row Layer    Maximum-Head-Change  Column Row Layer    Maximum-Flux-Residual          L2-NORM 
          0                 1           2             3    7     1       0.3854585689E-01       6    7    1         0.1649124014E+01      0.4286453982E+01
          0                 2           2             3    7     1      -0.3760205135E-02       6    7    1        -0.1649138349E+00      0.4555408553E+00
          0                 3           2             5    6     1       0.5781711125E-03       5    6    1         0.3174856327E-01      0.5308188335E-01
          0                 4           2             5    6     1       0.1579057206E-03       5    6    1         0.8751974166E-02      0.1231617314E-01
          0                 5           1             5    6     1       0.3806341312E-04       5    6    1         0.2115851526E-02      0.3161134191E-02

    ------------------------------------------------
       NWT REQUIRED            5 OUTER ITERATIONS 
       AND A TOTAL OF          9 INNER ITERATIONS.
    ------------------------------------------------

 NO OUTPUT CONTROL FOR STRESS PERIOD   35   TIME STEP   14
 
 SOLVING FOR HEAD 
                                                   Max.-Head-Change                         Max.-Flux-Residual
  Residual-Control   Outer-Iter.   Inner-Iter.     Column Row Layer    Maximum-Head-Change  Column Row Layer    Maximum-Flux-Residual          L2-NORM 
          0                 1           2             3    7     1       0.3788546714E-01       6    7    1         0.1596385040E+01      0.4193611493E+01
          0                 2           2             3    7     1      -0.3715503241E-02       6    7    1        -0.1596398758E+00      0.4787171838E+00
          0                 3           2             5    6     1       0.2021918196E-02       5    6    1         0.1153124378E+00      0.2319055954E+00
          0                 4           2             5    6     1       0.6595655789E-03       5    6    1         0.3770451452E-01      0.7565437606E-01
          0                 5           2             5    6     1       0.2151698005E-03       5    6    1         0.1229516989E-01      0.2482287362E-01
          0                 6           1             5    6     1       0.7020011578E-04       5    6    1         0.4011039304E-02      0.8152694271E-02

    ------------------------------------------------
       NWT REQUIRED            6 OUTER ITERATIONS 
       AND A TOTAL OF         11 INNER ITERATIONS.
    ------------------------------------------------

 NO OUTPUT CONTROL FOR STRESS PERIOD   35   TIME STEP   15
 
 SOLVING FOR HEAD 
                                                   Max.-Head-Change                         Max.-Flux-Residual
  Residual-Control   Outer-Iter.   Inner-Iter.     Column Row Layer    Maximum-Head-Change  Column Row Layer    Maximum-Flux-Residual          L2-NORM 
          0                 1           2             3    7     1       0.3724398311E-01       6    7    1         0.1546790352E+01      0.4106417613E+01
          0                 2           2             3    7     1      -0.3650609515E-02       6    7    1        -0.1546803471E+00      0.4594199517E+00
          0                 3           2             5    6     1       0.1975836028E-02       5    6    1         0.1126203447E+00      0.2292792908E+00
          0                 4           2             5    6     1       0.6449297896E-03       5    6    1         0.3684865187E-01      0.7480725341E-01
          0                 5           2             5    6     1       0.2105174018E-03       5    6    1         0.1202339105E-01      0.2454516008E-01
          0                 6           1             5    6     1       0.6871949246E-04       5    6    1         0.3924612429E-02      0.8061493266E-02

    ------------------------------------------------
       NWT REQUIRED            6 OUTER ITERATIONS 
       AND A TOTAL OF         11 INNER ITERATIONS.
    ------------------------------------------------

 NO OUTPUT CONTROL FOR STRESS PERIOD   35   TIME STEP   16
 
 SOLVING FOR HEAD 
                                                   Max.-Head-Change                         Max.-Flux-Residual
  Residual-Control   Outer-Iter.   Inner-Iter.     Column Row Layer    Maximum-Head-Change  Column Row Layer    Maximum-Flux-Residual          L2-NORM 
          0                 1           2             3    7     1       0.3662126320E-01       6    7    1         0.1500119393E+01      0.4024394744E+01
          0                 2           2             3    7     1      -0.3567662854E-02       6    7    1        -0.1500131936E+00      0.4348759194E+00
          0                 3           2             4    7     1      -0.2349598194E-02       4    7    1        -0.1235303556E+00      0.2577403066E+00
          0                 4           2             5    6     1       0.1593450594E-02       5    6    1         0.9057622010E-01      0.2085728216E+00
          0                 5           1             4    7     1      -0.7089345795E-04       4   13    1        -0.4373870834E-02      0.8929343388E-02

    ------------------------------------------------
       NWT REQUIRED            5 OUTER ITERATIONS 
       AND A TOTAL OF          9 INNER ITERATIONS.
    ------------------------------------------------

 NO OUTPUT CONTROL FOR STRESS PERIOD   35   TIME STEP   17
 
 SOLVING FOR HEAD 
                                                   Max.-Head-Change                         Max.-Flux-Residual
  Residual-Control   Outer-Iter.   Inner-Iter.     Column Row Layer    Maximum-Head-Change  Column Row Layer    Maximum-Flux-Residual          L2-NORM 
          0                 1           2             3    7     1       0.3600864912E-01       6    7    1         0.1455470678E+01      0.3945927704E+01
          0                 2           2             3    7     1      -0.3506343636E-02       6    7    1        -0.1455482664E+00      0.4300207309E+00
          0                 3           2             4    7     1      -0.2228215945E-02       4    7    1        -0.1171857683E+00      0.2432524985E+00
          0                 4           2             5    6     1       0.1544931160E-02       5    6    1         0.8780574389E-01      0.2027708622E+00
          0                 5           2             5    6     1       0.5070279701E-03       5    6    1         0.2879633939E-01      0.6697219082E-01
          0                 6           2             4    8     1       0.1665812810E-03       5    6    1         0.9451159620E-02      0.2213305891E-01
          0                 7           1             4    8     1       0.5562923295E-04       4    8    1         0.3114264795E-02      0.7316904037E-02

    ------------------------------------------------
       NWT REQUIRED            7 OUTER ITERATIONS 
       AND A TOTAL OF         13 INNER ITERATIONS.
    ------------------------------------------------

 NO OUTPUT CONTROL FOR STRESS PERIOD   35   TIME STEP   18
 
 SOLVING FOR HEAD 
                                                   Max.-Head-Change                         Max.-Flux-Residual
  Residual-Control   Outer-Iter.   Inner-Iter.     Column Row Layer    Maximum-Head-Change  Column Row Layer    Maximum-Flux-Residual          L2-NORM 
          0                 1           2             3    7     1       0.3542196702E-01       6    7    1         0.1414060567E+01      0.3873246088E+01
          0                 2           2             3    7     1      -0.3458881896E-02       6    7    1        -0.1414072022E+00      0.3988117877E+00
          0                 3           2             5    6     1       0.1113762664E-02       5    6    1         0.6015312339E-01      0.1153516549E+00
          0                 4           2             5    6     1       0.6302577420E-03       5    6    1         0.3394042927E-01      0.7462091577E-01
          0                 5           2             4    7     1      -0.4311613205E-03       4    7    1        -0.2387156014E-01      0.5569852037E-01
          0                 6           2             5    6     1       0.2096415581E-03       5    6    1         0.1191220075E-01      0.2790813247E-01
          0                 7           2             4    8     1       0.3047220746E-03       5    7    1         0.1730404711E-01      0.4187453473E-01
          0                 8           1             5    6     1      -0.3728209604E-04       5    6    1        -0.2196533755E-02      0.4931636547E-02

    ------------------------------------------------
       NWT REQUIRED            8 OUTER ITERATIONS 
       AND A TOTAL OF         15 INNER ITERATIONS.
    ------------------------------------------------

 NO OUTPUT CONTROL FOR STRESS PERIOD   35   TIME STEP   19
 
 SOLVING FOR HEAD 
                                                   Max.-Head-Change                         Max.-Flux-Residual
  Residual-Control   Outer-Iter.   Inner-Iter.     Column Row Layer    Maximum-Head-Change  Column Row Layer    Maximum-Flux-Residual          L2-NORM 
          0                 1           2             3    7     1       0.3485100872E-01       6    7    1         0.1374835388E+01      0.3804318593E+01
          0                 2           2             3    7     1      -0.3397405868E-02       6    7    1        -0.1374846338E+00      0.3959327422E+00
          0                 3           2             4    7     1      -0.3079833399E-03       4    7    1        -0.1685217699E-01      0.4004355008E-01
          0                 4           2             5    6     1       0.8977621279E-03       5    6    1         0.4832692385E-01      0.1086528538E+00
          0                 5           2             5    6     1       0.2598565486E-03       4    6    1         0.1398607895E-01      0.3295425279E-01
          0                 6           1             4    6     1       0.8319873185E-04       4    6    1         0.4675006352E-02      0.1005968660E-01

    ------------------------------------------------
       NWT REQUIRED            6 OUTER ITERATIONS 
       AND A TOTAL OF         11 INNER ITERATIONS.
    ------------------------------------------------

 NO OUTPUT CONTROL FOR STRESS PERIOD   35   TIME STEP   20
 
 SOLVING FOR HEAD 
                                                   Max.-Head-Change                         Max.-Flux-Residual
  Residual-Control   Outer-Iter.   Inner-Iter.     Column Row Layer    Maximum-Head-Change  Column Row Layer    Maximum-Flux-Residual          L2-NORM 
          0                 1           2             3    7     1       0.3429854090E-01       6    7    1         0.1337947028E+01      0.3739452465E+01
          0                 2           2             3    7     1      -0.3349985689E-02       6    7    1        -0.1337957496E+00      0.3834815581E+00
          0                 3           2             5    6     1       0.1338870228E-02       5    6    1         0.7214105082E-01      0.1470602231E+00
          0                 4           2             5    6     1       0.7472965281E-03       5    6    1         0.4017169765E-01      0.9300642755E-01
          0                 5           2             4    8     1       0.2375948241E-03       4    8    1         0.1332381638E-01      0.2972563236E-01
          0                 6           1             4    8     1       0.7917693444E-04       4    8    1         0.4446047699E-02      0.9587505356E-02

    ------------------------------------------------
       NWT REQUIRED            6 OUTER ITERATIONS 
       AND A TOTAL OF         11 INNER ITERATIONS.
    ------------------------------------------------

 NO OUTPUT CONTROL FOR STRESS PERIOD   35   TIME STEP   21
 
 SOLVING FOR HEAD 
                                                   Max.-Head-Change                         Max.-Flux-Residual
  Residual-Control   Outer-Iter.   Inner-Iter.     Column Row Layer    Maximum-Head-Change  Column Row Layer    Maximum-Flux-Residual          L2-NORM 
          0                 1           2             3    7     1       0.3376255120E-01       6    7    1         0.1303069081E+01      0.3678171392E+01
          0                 2           2             3    7     1      -0.3299822422E-02       6    7    1        -0.1303079093E+00      0.3807571060E+00
          0                 3           2             5    6     1       0.1673799815E-02       5    6    1         0.9007836373E-01      0.1913013097E+00
          0                 4           2             5    6     1       0.7728397122E-03       4    8    1         0.4211331288E-01      0.9815215561E-01
          0                 5           2             4    8     1       0.2511116154E-03       4    8    1         0.1408142076E-01      0.3143149011E-01
          0                 6           1             4    8     1       0.8368345406E-04       4    8    1         0.4698846708E-02      0.1015349622E-01

    ------------------------------------------------
       NWT REQUIRED            6 OUTER ITERATIONS 
       AND A TOTAL OF         11 INNER ITERATIONS.
    ------------------------------------------------

 NO OUTPUT CONTROL FOR STRESS PERIOD   35   TIME STEP   22
 
 SOLVING FOR HEAD 
                                                   Max.-Head-Change                         Max.-Flux-Residual
  Residual-Control   Outer-Iter.   Inner-Iter.     Column Row Layer    Maximum-Head-Change  Column Row Layer    Maximum-Flux-Residual          L2-NORM 
          0                 1           2             3    7     1       0.3324248166E-01       6    7    1         0.1270081821E+01      0.3620222385E+01
          0                 2           2             3    7     1      -0.3250553270E-02       6    7    1        -0.1270091398E+00      0.3798803225E+00
          0                 3           2             5    6     1       0.2128730432E-02       5    6    1         0.1144538807E+00      0.2516312896E+00
          0                 4           2             5    8     1       0.6994884619E-03       5    8    1         0.3968815609E-01      0.8776789256E-01
          0                 5           2             5    8     1       0.2300027995E-03       5    8    1         0.1304030192E-01      0.2870065491E-01
          0                 6           1             5    8     1       0.7566456210E-04       5    8    1         0.4288116913E-02      0.9430579610E-02

    ------------------------------------------------
       NWT REQUIRED            6 OUTER ITERATIONS 
       AND A TOTAL OF         11 INNER ITERATIONS.
    ------------------------------------------------

 NO OUTPUT CONTROL FOR STRESS PERIOD   35   TIME STEP   23
 
 SOLVING FOR HEAD 
                                                   Max.-Head-Change                         Max.-Flux-Residual
  Residual-Control   Outer-Iter.   Inner-Iter.     Column Row Layer    Maximum-Head-Change  Column Row Layer    Maximum-Flux-Residual          L2-NORM 
          0                 1           2             3    7     1       0.3273788026E-01       6    7    1         0.1238861639E+01      0.3565388414E+01
          0                 2           2             3    7     1      -0.3200469768E-02       6    7    1        -0.1238870805E+00      0.3725503190E+00
          0                 3           2             5    6     1       0.2090297423E-02       5    6    1         0.1187241213E+00      0.2639488748E+00
          0                 4           2             5    6     1       0.6911936445E-03       5    6    1         0.3931577437E-01      0.8842757939E-01
          0                 5           2             5    6     1       0.2266476079E-03       5    6    1         0.1288163543E-01      0.2941665006E-01
          0                 6           1             5    8     1       0.7445816946E-04       5    6    1         0.4224272065E-02      0.9791576558E-02

    ------------------------------------------------
       NWT REQUIRED            6 OUTER ITERATIONS 
       AND A TOTAL OF         11 INNER ITERATIONS.
    ------------------------------------------------

 NO OUTPUT CONTROL FOR STRESS PERIOD   35   TIME STEP   24
 
 SOLVING FOR HEAD 
                                                   Max.-Head-Change                         Max.-Flux-Residual
  Residual-Control   Outer-Iter.   Inner-Iter.     Column Row Layer    Maximum-Head-Change  Column Row Layer    Maximum-Flux-Residual          L2-NORM 
          0                 1           2             3    7     1       0.3224841550E-01       6    7    1         0.1209291896E+01      0.3513439038E+01
          0                 2           2             3    7     1      -0.3151506988E-02       6    7    1        -0.1209300673E+00      0.3643705800E+00
          0                 3           2             5    6     1       0.2106135728E-02       5    6    1         0.1195901249E+00      0.2679110157E+00
          0                 4           2             5    6     1       0.6908851162E-03       5    6    1         0.3928683465E-01      0.8897904366E-01
          0                 5           2             5    8     1       0.2268493285E-03       5    6    1         0.1287633158E-01      0.2960398169E-01
          0                 6           1             5    8     1       0.7464918119E-04       5    8    1         0.4229444383E-02      0.9855062927E-02

    ------------------------------------------------
       NWT REQUIRED            6 OUTER ITERATIONS 
       AND A TOTAL OF         11 INNER ITERATIONS.
    ------------------------------------------------

 NO OUTPUT CONTROL FOR STRESS PERIOD   35   TIME STEP   25
 
 SOLVING FOR HEAD 
                                                   Max.-Head-Change                         Max.-Flux-Residual
  Residual-Control   Outer-Iter.   Inner-Iter.     Column Row Layer    Maximum-Head-Change  Column Row Layer    Maximum-Flux-Residual          L2-NORM 
          0                 1           2             3    7     1       0.3177331133E-01       6    7    1         0.1181262005E+01      0.3464193147E+01
          0                 2           2             3    7     1      -0.3082145963E-02       5    6    1         0.1250392814E+00      0.4111664553E+00
          0                 3           2             4    7     1      -0.2019856153E-02       4    7    1        -0.1091177053E+00      0.2348981110E+00
          0                 4           2             5    8     1       0.1648034070E-02       5    6    1         0.9351661557E-01      0.2214258363E+00
          0                 5           2             4    8     1       0.5430400319E-03       5    8    1         0.3073009793E-01      0.7375406399E-01
          0                 6           2             4    8     1       0.1815669998E-03       4    8    1         0.1014314384E-01      0.2457530461E-01
          0                 7           1             4    8     1       0.6070438063E-04       4    8    1         0.3391251848E-02      0.8190139231E-02

    ------------------------------------------------
       NWT REQUIRED            7 OUTER ITERATIONS 
       AND A TOTAL OF         13 INNER ITERATIONS.
    ------------------------------------------------

 NO OUTPUT CONTROL FOR STRESS PERIOD   35   TIME STEP   26
 
 SOLVING FOR HEAD 
                                                   Max.-Head-Change                         Max.-Flux-Residual
  Residual-Control   Outer-Iter.   Inner-Iter.     Column Row Layer    Maximum-Head-Change  Column Row Layer    Maximum-Flux-Residual          L2-NORM 
          0                 1           2             3    7     1       0.3131258089E-01       6    7    1         0.1154676211E+01      0.3417472308E+01
          0                 2           2             3    7     1      -0.3057756666E-02       6    7    1        -0.1154684272E+00      0.3490714990E+00
          0                 3           2             5    8     1       0.2230184671E-02       5    6    1         0.1197357563E+00      0.2716811046E+00
          0                 4           2             4    8     1       0.6734732236E-03       4    8    1         0.3772570722E-01      0.8705714749E-01
          0                 5           2             4    8     1       0.2247520899E-03       4    8    1         0.1260681007E-01      0.2800287500E-01
          0                 6           1             4    8     1       0.7487533268E-04       4    8    1         0.4204971856E-02      0.9077659915E-02

    ------------------------------------------------
       NWT REQUIRED            6 OUTER ITERATIONS 
       AND A TOTAL OF         11 INNER ITERATIONS.
    ------------------------------------------------

 NO OUTPUT CONTROL FOR STRESS PERIOD   35   TIME STEP   27
 
 SOLVING FOR HEAD 
                                                   Max.-Head-Change                         Max.-Flux-Residual
  Residual-Control   Outer-Iter.   Inner-Iter.     Column Row Layer    Maximum-Head-Change  Column Row Layer    Maximum-Flux-Residual          L2-NORM 
          0                 1           2             3    7     1       0.3086514948E-01       6    7    1         0.1129436496E+01      0.3373099752E+01
          0                 2           2             3    7     1      -0.3012591750E-02       6    7    1        -0.1129444227E+00      0.3413295854E+00
          0                 3           2             5    8     1       0.2172538147E-02       5    6    1         0.1164192900E+00      0.2652305436E+00
          0                 4           2             4    8     1       0.6948305925E-03       4    8    1         0.3891422918E-01      0.9015946971E-01
          0                 5           2             4    8     1       0.2319280027E-03       4    8    1         0.1300698743E-01      0.2900707451E-01
          0                 6           1             4    8     1       0.7728108275E-04       4    8    1         0.4339347339E-02      0.9404939666E-02

    ------------------------------------------------
       NWT REQUIRED            6 OUTER ITERATIONS 
       AND A TOTAL OF         11 INNER ITERATIONS.
    ------------------------------------------------

 NO OUTPUT CONTROL FOR STRESS PERIOD   35   TIME STEP   28
 
 SOLVING FOR HEAD 
                                                   Max.-Head-Change                         Max.-Flux-Residual
  Residual-Control   Outer-Iter.   Inner-Iter.     Column Row Layer    Maximum-Head-Change  Column Row Layer    Maximum-Flux-Residual          L2-NORM 
          0                 1           2             3    7     1       0.3043104222E-01       6    7    1         0.1105454091E+01      0.3330917745E+01
          0                 2           2             3    7     1      -0.2969165940E-02       6    7    1        -0.1105461510E+00      0.3350186015E+00
          0                 3           2             5    8     1       0.2183379758E-02       5    8    1         0.1169774413E+00      0.2676038653E+00
          0                 4           2             4    8     1       0.6989236519E-03       4    8    1         0.3914090976E-01      0.9078039379E-01
          0                 5           2             4    8     1       0.2333126862E-03       4    8    1         0.1308378537E-01      0.2922050064E-01
          0                 6           1             4    8     1       0.7771714535E-04       4    8    1         0.4363570942E-02      0.9473413894E-02

    ------------------------------------------------
       NWT REQUIRED            6 OUTER ITERATIONS 
       AND A TOTAL OF         11 INNER ITERATIONS.
    ------------------------------------------------

 NO OUTPUT CONTROL FOR STRESS PERIOD   35   TIME STEP   29
 
 SOLVING FOR HEAD 
                                                   Max.-Head-Change                         Max.-Flux-Residual
  Residual-Control   Outer-Iter.   Inner-Iter.     Column Row Layer    Maximum-Head-Change  Column Row Layer    Maximum-Flux-Residual          L2-NORM 
          0                 1           2             3    7     1       0.3000977976E-01       6    7    1         0.1082671468E+01      0.3290797934E+01
          0                 2           2             3    7     1      -0.2930152781E-02       6    7    1        -0.1082678593E+00      0.3372424185E+00
          0                 3           2             5    8     1       0.2048082634E-02       5    8    1         0.1159567438E+00      0.2656709873E+00
          0                 4           2             5    8     1       0.9516512169E-03       5    8    1         0.5393011556E-01      0.1267535046E+00
          0                 5           1             5    8     1       0.5423772760E-04       5    8    1         0.3079920059E-02      0.7329731689E-02

    ------------------------------------------------
       NWT REQUIRED            5 OUTER ITERATIONS 
       AND A TOTAL OF          9 INNER ITERATIONS.
    ------------------------------------------------

 NO OUTPUT CONTROL FOR STRESS PERIOD   35   TIME STEP   30



 STREAM LISTING     PERIOD     35   STEP       30

 LAYER ROW COL. STREAM  RCH.  FLOW INTO     FLOW TO   FLOW OUT OF   OVRLND.     DIRECT     STREAM       STREAM     STREAM     STREAM   STREAMBED  STREAMBED
                SEG.NO.  NO.  STRM. RCH.    AQUIFER    STRM. RCH.    RUNOFF     PRECIP       ET          HEAD       DEPTH      WIDTH   CONDCTNC.   GRADIENT

   1    1    1     1     1    1.3125E+01  1.7336E-01   1.2951E+01  0.000E+00  0.000E+00  0.000E+00  1.09402E+03  9.718E-01  9.699E+00  4.365E-02  1.324E+00
   1    2    2     1     2    1.2951E+01  2.6707E-01   1.2684E+01  0.000E+00  0.000E+00  0.000E+00  1.08903E+03  9.671E-01  9.617E+00  6.732E-02  1.322E+00
   1    3    3     1     3    1.2684E+01  2.2640E-01   1.2458E+01  0.000E+00  0.000E+00  0.000E+00  1.08338E+03  9.616E-01  9.525E+00  5.715E-02  1.321E+00
   1    3    4     1     4    1.2458E+01  2.0736E-01   1.2250E+01  0.000E+00  0.000E+00  0.000E+00  1.07836E+03  9.568E-01  9.443E+00  5.241E-02  1.319E+00
   1    4    5     2     1    1.0250E+01  2.8870E-01   9.9617E+00  0.000E+00  0.000E+00  0.000E+00  1.07264E+03  7.013E-01  1.200E+01  7.800E-02  1.234E+00
   1    5    6     2     2    9.9617E+00  2.2144E-01   9.7403E+00  0.000E+00  0.000E+00  0.000E+00  1.06720E+03  6.906E-01  1.200E+01  6.000E-02  1.230E+00
   1    6    6     2     3    9.7403E+00  2.2088E-01   9.5194E+00  0.000E+00  0.000E+00  0.000E+00  1.06247E+03  6.813E-01  1.200E+01  6.000E-02  1.227E+00
   1    7    6     2     4    9.5194E+00  2.2031E-01   9.2991E+00  0.000E+00  0.000E+00  0.000E+00  1.05775E+03  6.719E-01  1.200E+01  6.000E-02  1.224E+00
   1    8    6     2     5    9.2991E+00  2.1974E-01   9.0793E+00  0.000E+00  0.000E+00  0.000E+00  1.05302E+03  6.624E-01  1.200E+01  6.000E-02  1.221E+00
   1    3    5     3     1    2.0000E+00  2.8252E-01   1.7175E+00  0.000E+00  0.000E+00  0.000E+00  1.07555E+03  1.909E+00  9.636E+00  7.227E-02  1.955E+00
   1    3    6     3     2    1.7175E+00  2.4905E-01   1.4684E+00  0.000E+00  0.000E+00  0.000E+00  1.07264E+03  1.727E+00  8.909E+00  6.682E-02  1.864E+00
   1    3    7     3     3    1.4684E+00  1.9718E-01   1.2712E+00  0.000E+00  0.000E+00  0.000E+00  1.06987E+03  1.555E+00  8.218E+00  5.547E-02  1.777E+00
   1    4    8     3     4    1.2712E+00  2.2567E-01   1.0456E+00  0.000E+00  0.000E+00  0.000E+00  1.06682E+03  1.364E+00  7.455E+00  6.709E-02  1.682E+00
   1    5    8     3     5    1.0456E+00  1.5790E-01   8.8768E-01  0.000E+00  0.000E+00  0.000E+00  1.06362E+03  1.164E+00  6.655E+00  4.991E-02  1.582E+00
   1    6    8     3     6    8.8768E-01  5.5980E-02   8.3170E-01  0.000E+00  0.000E+00  0.000E+00  1.06158E+03  1.036E+00  6.145E+00  1.844E-02  1.518E+00
   1    5   10     4     1    1.0000E+01  9.0919E-02   9.9091E+00  0.000E+00  0.000E+00  0.000E+00  1.07836E+03  6.368E-01  1.000E+01  2.500E-02  1.212E+00
   1    5    9     4     2    9.9091E+00  1.8158E-01   9.7275E+00  0.000E+00  0.000E+00  0.000E+00  1.07154E+03  6.315E-01  1.000E+01  5.000E-02  1.211E+00
   1    6    8     4     3    9.7275E+00  1.2689E-01   9.6006E+00  0.000E+00  0.000E+00  0.000E+00  1.06381E+03  6.256E-01  1.000E+01  3.500E-02  1.209E+00
   1    6    8     5     1    1.0432E+01  2.2686E-01   1.0205E+01  0.000E+00  0.000E+00  0.000E+00  1.05868E+03  6.790E-01  1.542E+01  6.166E-02  1.226E+00
   1    7    7     5     2    1.0205E+01  2.7894E-01   9.9265E+00  0.000E+00  0.000E+00  0.000E+00  1.05417E+03  6.732E-01  1.519E+01  7.594E-02  1.224E+00
   1    8    7     5     3    9.9265E+00  1.9221E-01   9.7343E+00  0.000E+00  0.000E+00  0.000E+00  1.04992E+03  6.676E-01  1.497E+01  5.241E-02  1.223E+00
   1    8    6     5     4    9.7343E+00  1.3577E-01   9.5985E+00  0.000E+00  0.000E+00  0.000E+00  1.04691E+03  6.637E-01  1.482E+01  3.706E-02  1.221E+00
   1    9    6     6     1    1.7686E+01  2.3928E-01   1.7447E+01  0.000E+00  0.000E+00  0.000E+00  1.04372E+03  9.880E-01  1.200E+01  6.000E-02  1.329E+00
   1   10    7     6     2    1.7447E+01  2.3880E-01   1.7208E+01  0.000E+00  0.000E+00  0.000E+00  1.03916E+03  9.800E-01  1.200E+01  6.000E-02  1.327E+00
   1   11    7     6     3    1.7208E+01  2.3831E-01   1.6969E+01  0.000E+00  0.000E+00  0.000E+00  1.03461E+03  9.718E-01  1.200E+01  6.000E-02  1.324E+00
   1   12    7     6     4    1.6969E+01  2.3782E-01   1.6732E+01  0.000E+00  0.000E+00  0.000E+00  1.03005E+03  9.637E-01  1.200E+01  6.000E-02  1.321E+00
   1   13    7     6     5    1.6732E+01  9.3064E-03   1.6722E+01  0.000E+00  0.000E+00  0.000E+00  1.02687E+03  9.594E-01  1.200E+01  2.400E-02  1.293E-01
   1   14    9     7     1    1.5000E+02  1.4044E+00   1.4860E+02  0.000E+00  0.000E+00  0.000E+00  1.03987E+03  2.288E+00  5.529E+01  5.593E-01  8.370E-01
   1   13    8     7     2    1.4860E+02  2.0356E+00   1.4656E+02  0.000E+00  0.000E+00  0.000E+00  1.03478E+03  2.278E+00  5.525E+01  6.147E-01  1.104E+00
   1   13    7     7     3    1.4656E+02  1.7904E+00   1.4477E+02  0.000E+00  0.000E+00  0.000E+00  1.02969E+03  2.268E+00  5.521E+01  5.583E-01  1.069E+00
   1   13    6     8     1    1.6149E+02  1.1804E+00   1.6031E+02  0.000E+00  0.000E+00  0.000E+00  1.02477E+03  2.892E+00  4.193E+01  4.273E-01  9.208E-01
   1   13    5     8     2    1.6031E+02  4.1783E-01   1.5989E+02  0.000E+00  0.000E+00  0.000E+00  1.01851E+03  2.887E+00  4.185E+01  4.265E-01  3.265E-01
   1   13    4     8     3    1.5989E+02 -1.6124E+00   1.6151E+02  0.000E+00  0.000E+00  0.000E+00  1.01227E+03  2.891E+00  4.191E+01  4.271E+00 -1.258E-01
   1   13    3     8     4    1.6151E+02 -3.2381E+00   1.6474E+02  0.000E+00  0.000E+00  0.000E+00  1.00603E+03  2.907E+00  4.215E+01  4.295E+00 -2.513E-01
   1   13    2     8     5    1.6474E+02 -2.4630E+00   1.6721E+02  0.000E+00  0.000E+00  0.000E+00  9.99801E+02  2.926E+00  4.242E+01  4.323E+00 -1.899E-01
   1   13    1     8     6    1.6721E+02 -1.9364E+00   1.6914E+02  0.000E+00  0.000E+00  0.000E+00  9.94815E+02  2.940E+00  4.263E+01  2.607E+00 -2.476E-01
   1    8    6     9     1    9.9206E-01  0.0000E+00   9.9206E-01  0.000E+00  0.000E+00  0.000E+00  1.07932E+03  5.665E-01  4.000E+00  0.000E+00  1.189E+00
   1    8    5     9     2    9.9206E-01  0.0000E+00   9.9206E-01  0.000E+00  0.000E+00  0.000E+00  1.07882E+03  5.665E-01  4.000E+00  0.000E+00  1.189E+00





UNSATURATED ZONE PACKAGE VOLUMETRIC BUDGET FOR  TIME STEP    30 STRESS PERIOD   35
  ------------------------------------------------------------------------------



     CUMULATIVE VOLUMES      L**3       RATES FOR THIS TIME STEP      L**3/T
     ------------------                 ------------------------

           IN:                                      IN:
           ---                                      ---
        INFILTRATION =  6211578048.8562          INFILTRATION =           1.8396

          OUT:                                     OUT:
          ----                                     ----
              UZF ET =  1283865693.2740                UZF ET =           1.5675
        UZF RECHARGE =  4443293867.1280          UZF RECHARGE =           9.4377

            IN - OUT =   484418488.4543              IN - OUT =          -9.1656

          STORAGE:                                 STORAGE:
          --------                                 --------
      STORAGE CHANGE =   484454275.6115        STORAGE CHANGE =          -9.1656

 PERCENT DISCREPANCY IS DIFFERENCE BETWEEN IN-OUT MINUS CHANGE IN STORAGE
 DIVIDED BY THE AVERAGE OF IN AND OUT TIMES 100

 PERCENT DISCREPANCY =          -0.00     PERCENT DISCREPANCY =           0.00






1
  VOLUMETRIC BUDGET FOR AGRICULTURAL FIELDS AT  END OF TIME STEP   30, STRESS PERIOD  35
  ------------------------------------------------------------------------------

     CUMULATIVE VOLUMES      L**3       RATES FOR THIS TIME STEP      L**3/T
     ------------------                 ------------------------

           IN:                                      IN:
           ---                                      ---
               AG WELLS  =  5348740096.0000                 AG WELLS  =       8.7984E-02
      DIVERSION SEGMENTS =   786998656.0000        DIVERSION SEGMENTS =           0.9921
           GW IRRIGATION =           0.0000             GW IRRIGATION =           0.0000
           SW IRRIGATION =           0.0000             SW IRRIGATION =           0.0000
        SYSTEM LOSSES GW =           0.0000          SYSTEM LOSSES GW =           0.0000
        SYSTEM LOSSES SW =           0.0000          SYSTEM LOSSES SW =           0.0000

                TOTAL IN =  6135738880.0000                  TOTAL IN =           1.0800

          OUT:                                     OUT:
          ----                                     ----
               AG WELLS  =           0.0000                 AG WELLS  =           0.0000
      DIVERSION SEGMENTS =           0.0000        DIVERSION SEGMENTS =           0.0000
           GW IRRIGATION =  5348740096.0000             GW IRRIGATION =       8.7984E-02
           SW IRRIGATION =   787013952.0000             SW IRRIGATION =           0.9921
        SYSTEM LOSSES GW =           0.0000          SYSTEM LOSSES GW =           0.0000
        SYSTEM LOSSES SW =           0.0000          SYSTEM LOSSES SW =           0.0000

               TOTAL OUT =  6135754240.0000                 TOTAL OUT =           1.0801

                IN - OUT =      -15360.0000                  IN - OUT =      -1.9789E-05

     PERCENT DISCREPANCY =          -0.00         PERCENT DISCREPANCY =          -0.00



1
  VOLUMETRIC BUDGET FOR ENTIRE MODEL AT END OF TIME STEP   30, STRESS PERIOD  35
  ------------------------------------------------------------------------------

     CUMULATIVE VOLUMES      L**3       RATES FOR THIS TIME STEP      L**3/T
     ------------------                 ------------------------

           IN:                                      IN:
           ---                                      ---
             STORAGE     =  5268718592.0000               STORAGE     =           3.8202
       CONSTANT HEAD     =           0.0000         CONSTANT HEAD     =           0.0000
     HEAD DEP BOUNDS     =    25850562.0000       HEAD DEP BOUNDS     =           0.2904
      STREAM LEAKAGE     =  1079495552.0000        STREAM LEAKAGE     =          12.2390
        UZF RECHARGE     =  4443293696.0000          UZF RECHARGE     =           9.4377
               GW ET     =           0.0000                 GW ET     =           0.0000
     SURFACE LEAKAGE     =           0.0000       SURFACE LEAKAGE     =           0.0000
           AG WELLS      =           0.0000             AG WELLS      =           0.0000

                TOTAL IN = 10817357824.0000                  TOTAL IN =          25.7873

          OUT:                                     OUT:
          ----                                     ----
             STORAGE     =  4571850752.0000               STORAGE     =          16.1569
       CONSTANT HEAD     =           0.0000         CONSTANT HEAD     =           0.0000
     HEAD DEP BOUNDS     =    25713196.0000       HEAD DEP BOUNDS     =           0.2872
      STREAM LEAKAGE     =   870953152.0000        STREAM LEAKAGE     =           9.2500
        UZF RECHARGE     =           0.0000          UZF RECHARGE     =           0.0000
               GW ET     =           0.0000                 GW ET     =           0.0000
     SURFACE LEAKAGE     =           0.0000       SURFACE LEAKAGE     =           0.0000
           AG WELLS      =  5348740096.0000             AG WELLS      =       8.7984E-02

               TOTAL OUT = 10817257472.0000                 TOTAL OUT =          25.7821

                IN - OUT =      100352.0000                  IN - OUT =       5.2242E-03

     PERCENT DISCREPANCY =           0.00         PERCENT DISCREPANCY =           0.02






         TIME SUMMARY AT END OF TIME STEP   30 IN STRESS PERIOD   35
                    SECONDS     MINUTES      HOURS       DAYS        YEARS
                    -----------------------------------------------------------
   TIME STEP LENGTH  87667.      1461.1      24.352      1.0147     2.77799E-03
 STRESS PERIOD TIME 2.63000E+06  43833.      730.56      30.440     8.33397E-02
         TOTAL TIME 8.95061E+07 1.49177E+06  24863.      1036.0      2.8363    
1
1
                            STRESS PERIOD NO.   36, LENGTH =   2630000.    
                            -----------------------------------------------

                              NUMBER OF TIME STEPS =    30

                               MULTIPLIER FOR DELT =     1.000

                            INITIAL TIME STEP SIZE =   87666.66    

 REUSING NON-PARAMETER GHB CELLS FROM LAST STRESS PERIOD

      2 GHB CELLS

 REUSING STREAM SEGMENT DATA FROM LAST STRESS PERIOD



            AREAL INFILTRATION RATE
 READING ON UNIT   19 WITH FORMAT: (FREE)              

            1           2           3           4           5           6           7           8           9          10
 ........................................................................................................................
   1   1.0000E-10  2.0000E-10   0.000       0.000       0.000       0.000       0.000       0.000       0.000       0.000    
   2   2.0000E-10  1.0000E-10  2.0000E-10   0.000       0.000      8.0000E-10  8.0000E-10  5.0000E-10   0.000       0.000    
   3    0.000      5.0000E-10  1.0000E-10  1.0000E-10  8.0000E-10  8.0000E-10  5.0000E-10  5.0000E-10   0.000       0.000    
   4   8.0000E-10  5.0000E-10  1.0000E-10  1.0000E-10  1.0000E-10  1.0000E-10  1.0000E-10  1.0000E-10  2.0000E-10   0.000    
   5   8.0000E-10  5.0000E-10  1.0000E-10  1.0000E-10  1.0000E-10  1.0000E-10  1.0000E-10  1.0000E-10  1.0000E-10  1.0000E-10
   6   8.0000E-10  5.0000E-10  5.0000E-10  2.0000E-10  2.0000E-10  1.0000E-10  1.0000E-10  1.0000E-10  1.0000E-10  5.0000E-10
   7   8.0000E-10  5.0000E-10  5.0000E-10  2.0000E-10  2.0000E-10  1.0000E-10  1.0000E-10  2.0000E-10  2.0000E-10   0.000    
   8    0.000      5.0000E-10  5.0000E-10  2.0000E-10  2.0000E-10  1.0000E-10  1.0000E-10  2.0000E-10  5.0000E-10   0.000    
   9    0.000      5.0000E-10  5.0000E-10  2.0000E-10  2.0000E-10  1.0000E-10  1.0000E-10  2.0000E-10  5.0000E-10   0.000    
  10    0.000      5.0000E-10  5.0000E-10  2.0000E-10  2.0000E-10  1.0000E-10  1.0000E-10  2.0000E-10  5.0000E-10  8.0000E-10
  11    0.000      1.0000E-10  1.0000E-10  1.0000E-10  1.0000E-10  1.0000E-10  1.0000E-10  2.0000E-10  5.0000E-10   0.000    
  12   1.0000E-10  1.0000E-10  1.0000E-10  1.0000E-10  1.0000E-10  1.0000E-10  1.0000E-10  1.0000E-10  2.0000E-10   0.000    
  13   1.0000E-10  1.0000E-10  2.0000E-10  2.0000E-10  2.0000E-10  2.0000E-10  2.0000E-10  1.0000E-10  1.0000E-10   0.000    
  14    0.000      2.0000E-10  5.0000E-10  5.0000E-10  5.0000E-10  5.0000E-10  5.0000E-10  2.0000E-10  1.0000E-10   0.000    
  15    0.000       0.000      8.0000E-10  8.0000E-10  8.0000E-10  8.0000E-10   0.000       0.000       0.000       0.000    

                  ET RATE =  5.000000E-10

 USING ET EXTINCTION DEPTH FROM PREVIOUS STRESS PERIOD. CURRENT PERIOD IS:      36

 USING EXTINCTION WATER CONTENT FROM PREVIOUS STRESS PERIOD. CURRENT PERIOD IS:      36

 USING AIR ENTRY PRESSURE FROM PREVIOUS STRESS PERIOD. CURRENT PERIOD IS:      36

 USING ROOT PRESSURE HEAD FROM PREVIOUS STRESS PERIOD. CURRENT PERIOD IS:      36

 USING ROOT ACTIVITY FROM PREVIOUS STRESS PERIOD. CURRENT PERIOD IS:      36

 PROCESSING AG STRESS PERIOD DATA

 READING AG STRESS PERIOD DATA

 READING IRRIGATION SEGMENT

 READING IRRIGATION WELL

 READING SUPPLEMENTAL WELL

 END PROCESSING AG STRESS PERIOD DATA OPTIONS
 
 SOLVING FOR HEAD 
                                                   Max.-Head-Change                         Max.-Flux-Residual
  Residual-Control   Outer-Iter.   Inner-Iter.     Column Row Layer    Maximum-Head-Change  Column Row Layer    Maximum-Flux-Residual          L2-NORM 
          0                 1           2             3    7     1       0.2959666228E-01       6    7    1         0.1060649718E+01      0.3252156607E+01
          0                 2           2             3    7     1      -0.2864344956E-02       5    8    1         0.1302368387E+00      0.4091021808E+00
          0                 3           2             5    8     1       0.6846432012E-03       5    8    1         0.3665530253E-01      0.7808776787E-01
          0                 4           2             5    8     1       0.1982901302E-03       5    8    1         0.1067444865E-01      0.2212867805E-01
          0                 5           1             5    8     1       0.5747546298E-04       5    8    1         0.3089656267E-02      0.6495020759E-02

    ------------------------------------------------
       NWT REQUIRED            5 OUTER ITERATIONS 
       AND A TOTAL OF          9 INNER ITERATIONS.
    ------------------------------------------------

 NO OUTPUT CONTROL FOR STRESS PERIOD   36   TIME STEP    1
 
 SOLVING FOR HEAD 
                                                   Max.-Head-Change                         Max.-Flux-Residual
  Residual-Control   Outer-Iter.   Inner-Iter.     Column Row Layer    Maximum-Head-Change  Column Row Layer    Maximum-Flux-Residual          L2-NORM 
          0                 1           2             3    7     1       0.2919977818E-01       4    9    1         0.1038675068E+01      0.3211157870E+01
          0                 2           2             3    7     1      -0.2824671458E-02       5    8    1         0.1312008251E+00      0.4085859966E+00
          0                 3           2             5    8     1       0.6906682114E-03       5    8    1         0.3697078032E-01      0.7942244809E-01
          0                 4           2             5    8     1       0.2001258901E-03       5    8    1         0.1076942284E-01      0.2257478305E-01
          0                 5           1             5    8     1       0.5803358853E-04       5    8    1         0.3118624910E-02      0.6630098012E-02

    ------------------------------------------------
       NWT REQUIRED            5 OUTER ITERATIONS 
       AND A TOTAL OF          9 INNER ITERATIONS.
    ------------------------------------------------

 NO OUTPUT CONTROL FOR STRESS PERIOD   36   TIME STEP    2
 
 SOLVING FOR HEAD 
                                                   Max.-Head-Change                         Max.-Flux-Residual
  Residual-Control   Outer-Iter.   Inner-Iter.     Column Row Layer    Maximum-Head-Change  Column Row Layer    Maximum-Flux-Residual          L2-NORM 
          0                 1           2             3    7     1       0.2881433672E-01       4    9    1         0.1019304256E+01      0.3176268334E+01
          0                 2           2             3    7     1      -0.2786158425E-02       5    8    1         0.1320711731E+00      0.4085010852E+00
          0                 3           2             5    8     1       0.6960935958E-03       5    8    1         0.3725356135E-01      0.8069835262E-01
          0                 4           2             5    8     1       0.2017842221E-03       5    8    1         0.1085504103E-01      0.2299694804E-01
          0                 5           1             5    8     1       0.5853922602E-04       5    8    1         0.3144813458E-02      0.6757830283E-02

    ------------------------------------------------
       NWT REQUIRED            5 OUTER ITERATIONS 
       AND A TOTAL OF          9 INNER ITERATIONS.
    ------------------------------------------------

 NO OUTPUT CONTROL FOR STRESS PERIOD   36   TIME STEP    3
 
 SOLVING FOR HEAD 
                                                   Max.-Head-Change                         Max.-Flux-Residual
  Residual-Control   Outer-Iter.   Inner-Iter.     Column Row Layer    Maximum-Head-Change  Column Row Layer    Maximum-Flux-Residual          L2-NORM 
          0                 1           2             3    7     1       0.2844014206E-01       4    9    1         0.1000746493E+01      0.3143046554E+01
          0                 2           2             3    7     1      -0.2748784544E-02       5    8    1         0.1328453297E+00      0.4084748454E+00
          0                 3           2             5    8     1       0.7009659906E-03       5    8    1         0.3750690700E-01      0.8190990329E-01
          0                 4           2             5    8     1       0.2032787893E-03       5    8    1         0.1093200041E-01      0.2339630465E-01
          0                 5           1             5    8     1       0.5899637786E-04       5    8    1         0.3168435816E-02      0.6878602321E-02

    ------------------------------------------------
       NWT REQUIRED            5 OUTER ITERATIONS 
       AND A TOTAL OF          9 INNER ITERATIONS.
    ------------------------------------------------

 NO OUTPUT CONTROL FOR STRESS PERIOD   36   TIME STEP    4
 
 SOLVING FOR HEAD 
                                                   Max.-Head-Change                         Max.-Flux-Residual
  Residual-Control   Outer-Iter.   Inner-Iter.     Column Row Layer    Maximum-Head-Change  Column Row Layer    Maximum-Flux-Residual          L2-NORM 
          0                 1           2             3    7     1       0.2807652392E-01       4    9    1         0.9829615729E+00      0.3111306626E+01
          0                 2           2             3    7     1      -0.2712483343E-02       5    8    1         0.1335293802E+00      0.4084835219E+00
          0                 3           2             5    8     1       0.7053260355E-03       5    8    1         0.3773304406E-01      0.8305781012E-01
          0                 4           2             5    8     1       0.2046216340E-03       5    8    1         0.1100093483E-01      0.2377350461E-01
          0                 5           1             5    8     1       0.5940860750E-04       5    8    1         0.3189680748E-02      0.6992630618E-02

    ------------------------------------------------
       NWT REQUIRED            5 OUTER ITERATIONS 
       AND A TOTAL OF          9 INNER ITERATIONS.
    ------------------------------------------------

 NO OUTPUT CONTROL FOR STRESS PERIOD   36   TIME STEP    5
 
 SOLVING FOR HEAD 
                                                   Max.-Head-Change                         Max.-Flux-Residual
  Residual-Control   Outer-Iter.   Inner-Iter.     Column Row Layer    Maximum-Head-Change  Column Row Layer    Maximum-Flux-Residual          L2-NORM 
          0                 1           2             3    7     1       0.2772307073E-01       4    9    1         0.9659117359E+00      0.3080936048E+01
          0                 2           2             3    7     1      -0.2677214452E-02       5    8    1         0.1341319946E+00      0.4085122116E+00
          0                 3           2             5    8     1       0.7092197959E-03       5    8    1         0.3793448025E-01      0.8414276320E-01
          0                 4           2             5    8     1       0.2058259367E-03       5    8    1         0.1106255954E-01      0.2412908860E-01
          0                 5           1             5    8     1       0.5977968825E-04       5    8    1         0.3208752971E-02      0.7100091172E-02

    ------------------------------------------------
       NWT REQUIRED            5 OUTER ITERATIONS 
       AND A TOTAL OF          9 INNER ITERATIONS.
    ------------------------------------------------

 NO OUTPUT CONTROL FOR STRESS PERIOD   36   TIME STEP    6
 
 SOLVING FOR HEAD 
                                                   Max.-Head-Change                         Max.-Flux-Residual
  Residual-Control   Outer-Iter.   Inner-Iter.     Column Row Layer    Maximum-Head-Change  Column Row Layer    Maximum-Flux-Residual          L2-NORM 
          0                 1           2             3    7     1       0.2737986911E-01       4    9    1         0.9495607056E+00      0.3051859751E+01
          0                 2           2             3    7     1      -0.2642984880E-02       5    8    1         0.1346546947E+00      0.4085510073E+00
          0                 3           2             5    8     1       0.7126589137E-03       5    8    1         0.3811177737E-01      0.8516622912E-01
          0                 4           2             5    8     1       0.2068955522E-03       5    8    1         0.1111706266E-01      0.2446378473E-01
          0                 5           1             5    8     1       0.6011087054E-04       5    8    1         0.3225714473E-02      0.7201215725E-02

    ------------------------------------------------
       NWT REQUIRED            5 OUTER ITERATIONS 
       AND A TOTAL OF          9 INNER ITERATIONS.
    ------------------------------------------------

 NO OUTPUT CONTROL FOR STRESS PERIOD   36   TIME STEP    7
 
 SOLVING FOR HEAD 
                                                   Max.-Head-Change                         Max.-Flux-Residual
  Residual-Control   Outer-Iter.   Inner-Iter.     Column Row Layer    Maximum-Head-Change  Column Row Layer    Maximum-Flux-Residual          L2-NORM 
          0                 1           2             3    7     1       0.2704604040E-01       4    9    1         0.9338806958E+00      0.3023996301E+01
          0                 2           2             3    7     1      -0.2609707272E-02       5    8    1         0.1351055900E+00      0.4085911669E+00
          0                 3           2             5    8     1       0.7156865143E-03       5    8    1         0.3826727457E-01      0.8613004771E-01
          0                 4           2             5    8     1       0.2078428678E-03       5    8    1         0.1116511447E-01      0.2477840940E-01
          0                 5           1             5    8     1       0.6040571607E-04       5    8    1         0.3240757821E-02      0.7296260303E-02

    ------------------------------------------------
       NWT REQUIRED            5 OUTER ITERATIONS 
       AND A TOTAL OF          9 INNER ITERATIONS.
    ------------------------------------------------

 NO OUTPUT CONTROL FOR STRESS PERIOD   36   TIME STEP    8
 
 SOLVING FOR HEAD 
                                                   Max.-Head-Change                         Max.-Flux-Residual
  Residual-Control   Outer-Iter.   Inner-Iter.     Column Row Layer    Maximum-Head-Change  Column Row Layer    Maximum-Flux-Residual          L2-NORM 
          0                 1           2             3    7     1       0.2672145676E-01       4    9    1         0.9188322626E+00      0.2997262683E+01
          0                 2           2             3    7     1      -0.2577368252E-02       5    8    1         0.1354899412E+00      0.4086253756E+00
          0                 3           2             5    8     1       0.7183328302E-03       5    8    1         0.3840257134E-01      0.8703643874E-01
          0                 4           2             5    8     1       0.2086768674E-03       5    8    1         0.1120718908E-01      0.2507385780E-01
          0                 5           1             5    8     1       0.6066689102E-04       5    8    1         0.3254023980E-02      0.7385502294E-02

    ------------------------------------------------
       NWT REQUIRED            5 OUTER ITERATIONS 
       AND A TOTAL OF          9 INNER ITERATIONS.
    ------------------------------------------------

 NO OUTPUT CONTROL FOR STRESS PERIOD   36   TIME STEP    9
 
 SOLVING FOR HEAD 
                                                   Max.-Head-Change                         Max.-Flux-Residual
  Residual-Control   Outer-Iter.   Inner-Iter.     Column Row Layer    Maximum-Head-Change  Column Row Layer    Maximum-Flux-Residual          L2-NORM 
          0                 1           2             3    7     1       0.2640599681E-01       4    9    1         0.9043908241E+00      0.2971592433E+01
          0                 2           2             3    7     1      -0.2545922997E-02       5    8    1         0.1358125805E+00      0.4086358769E+00
          0                 3           2             5    8     1       0.7205859040E-03       5    8    1         0.3851798366E-01      0.8788218350E-01
          0                 4           2             5    8     1       0.2093866362E-03       5    8    1         0.1124300440E-01      0.2534935358E-01
          0                 5           1             5    8     1       0.6088892735E-04       5    8    1         0.3265312279E-02      0.7468770375E-02

    ------------------------------------------------
       NWT REQUIRED            5 OUTER ITERATIONS 
       AND A TOTAL OF          9 INNER ITERATIONS.
    ------------------------------------------------

 NO OUTPUT CONTROL FOR STRESS PERIOD   36   TIME STEP   10
 
 SOLVING FOR HEAD 
                                                   Max.-Head-Change                         Max.-Flux-Residual
  Residual-Control   Outer-Iter.   Inner-Iter.     Column Row Layer    Maximum-Head-Change  Column Row Layer    Maximum-Flux-Residual          L2-NORM 
          0                 1           2             3    7     1       0.2609917785E-01       4    9    1         0.8905330335E+00      0.2946913525E+01
          0                 2           2             3    7     1      -0.2515387653E-02       5    8    1         0.1360727499E+00      0.4086399444E+00
          0                 3           2             5    8     1       0.7225283750E-03       5    8    1         0.3861581913E-01      0.8867912340E-01
          0                 4           2             5    8     1       0.2100126525E-03       5    8    1         0.1127406217E-01      0.2560861525E-01
          0                 5           1             5    8     1       0.6108862802E-04       5    8    1         0.3275321055E-02      0.7547069061E-02

    ------------------------------------------------
       NWT REQUIRED            5 OUTER ITERATIONS 
       AND A TOTAL OF          9 INNER ITERATIONS.
    ------------------------------------------------

 NO OUTPUT CONTROL FOR STRESS PERIOD   36   TIME STEP   11
 
 SOLVING FOR HEAD 
                                                   Max.-Head-Change                         Max.-Flux-Residual
  Residual-Control   Outer-Iter.   Inner-Iter.     Column Row Layer    Maximum-Head-Change  Column Row Layer    Maximum-Flux-Residual          L2-NORM 
          0                 1           2             3    7     1       0.2580057501E-01       4    9    1         0.8772173662E+00      0.2923173789E+01
          0                 2           2             5    8     1       0.2492569863E-02       5    8    1         0.1362778924E+00      0.4086154221E+00
          0                 3           2             5    8     1       0.7241392234E-03       5    8    1         0.3869641445E-01      0.8942222430E-01
          0                 4           2             5    8     1       0.2105379219E-03       5    8    1         0.1129988835E-01      0.2585042233E-01
          0                 5           1             5    8     1       0.6125784589E-04       5    8    1         0.3283741486E-02      0.7620141221E-02

    ------------------------------------------------
       NWT REQUIRED            5 OUTER ITERATIONS 
       AND A TOTAL OF          9 INNER ITERATIONS.
    ------------------------------------------------

 NO OUTPUT CONTROL FOR STRESS PERIOD   36   TIME STEP   12
 
 SOLVING FOR HEAD 
                                                   Max.-Head-Change                         Max.-Flux-Residual
  Residual-Control   Outer-Iter.   Inner-Iter.     Column Row Layer    Maximum-Head-Change  Column Row Layer    Maximum-Flux-Residual          L2-NORM 
          0                 1           2             3    7     1       0.2551015085E-01       4    9    1         0.8644303285E+00      0.2972586825E+01
          0                 2           2             5    8     1       0.4483782152E-02       5    8    1         0.2461508993E+00      0.4581885501E+00
          0                 3           2             5    8     1       0.1351140612E-02       5    8    1         0.7328595571E-01      0.1103413152E+00
          0                 4           2             5    8     1       0.4071481487E-03       5    8    1         0.2214027313E-01      0.3266722004E-01
          0                 5           1             5    8     1       0.1226869915E-03       5    8    1         0.6669353661E-02      0.9787655989E-02
          0                 6           1             5    8     1       0.3696897959E-04       5    8    1         0.2009780595E-02      0.2935295923E-02

    ------------------------------------------------
       NWT REQUIRED            6 OUTER ITERATIONS 
       AND A TOTAL OF         10 INNER ITERATIONS.
    ------------------------------------------------

 NO OUTPUT CONTROL FOR STRESS PERIOD   36   TIME STEP   13
 
 SOLVING FOR HEAD 
                                                   Max.-Head-Change                         Max.-Flux-Residual
  Residual-Control   Outer-Iter.   Inner-Iter.     Column Row Layer    Maximum-Head-Change  Column Row Layer    Maximum-Flux-Residual          L2-NORM 
          0                 1           2             3    7     1       0.2522768852E-01       5    8    1         0.8930117221E+00      0.2988049624E+01
          0                 2           2             5    8     1       0.5064561002E-02       5    8    1         0.2781140163E+00      0.4779038209E+00
          0                 3           2             5    8     1       0.1523376492E-02       5    8    1         0.8276125398E-01      0.1180276660E+00
          0                 4           2             5    8     1       0.4582580477E-03       5    8    1         0.2495054235E-01      0.3502885384E-01
          0                 5           1             5    8     1       0.1378624348E-03       5    8    1         0.7503419239E-02      0.1050154104E-01
          0                 6           1             5    8     1       0.4147735520E-04       5    8    1         0.2257465453E-02      0.3150940669E-02

    ------------------------------------------------
       NWT REQUIRED            6 OUTER ITERATIONS 
       AND A TOTAL OF         10 INNER ITERATIONS.
    ------------------------------------------------

 NO OUTPUT CONTROL FOR STRESS PERIOD   36   TIME STEP   14
 
 SOLVING FOR HEAD 
                                                   Max.-Head-Change                         Max.-Flux-Residual
  Residual-Control   Outer-Iter.   Inner-Iter.     Column Row Layer    Maximum-Head-Change  Column Row Layer    Maximum-Flux-Residual          L2-NORM 
          0                 1           2             3    7     1       0.2495305814E-01       5    8    1         0.8512073933E+00      0.2963680557E+01
          0                 2           2             5    8     1       0.4846079418E-02       5    8    1         0.2659461123E+00      0.4726795956E+00
          0                 3           2             5    8     1       0.1459604299E-02       5    8    1         0.7921120505E-01      0.1165175927E+00
          0                 4           2             5    8     1       0.4396255221E-03       5    8    1         0.2391417276E-01      0.3457437590E-01
          0                 5           1             5    8     1       0.1324133756E-03       5    8    1         0.7200540368E-02      0.1036456224E-01
          0                 6           1             5    8     1       0.3988233205E-04       5    8    1         0.2168867988E-02      0.3109629199E-02

    ------------------------------------------------
       NWT REQUIRED            6 OUTER ITERATIONS 
       AND A TOTAL OF         10 INNER ITERATIONS.
    ------------------------------------------------

 NO OUTPUT CONTROL FOR STRESS PERIOD   36   TIME STEP   15
 
 SOLVING FOR HEAD 
                                                   Max.-Head-Change                         Max.-Flux-Residual
  Residual-Control   Outer-Iter.   Inner-Iter.     Column Row Layer    Maximum-Head-Change  Column Row Layer    Maximum-Flux-Residual          L2-NORM 
          0                 1           2             3    7     1       0.2468626797E-01       4    9    1         0.8307626562E+00      0.2940907780E+01
          0                 2           2             5    8     1       0.4650311234E-02       5    8    1         0.2550447108E+00      0.4681656723E+00
          0                 3           2             5    8     1       0.1402430438E-02       5    8    1         0.7602997345E-01      0.1152504153E+00
          0                 4           2             5    8     1       0.4229121689E-03       5    8    1         0.2298489601E-01      0.3419135345E-01
          0                 5           1             5    8     1       0.1275231791E-03       5    8    1         0.6928823278E-02      0.1024849006E-01
          0                 6           1             5    8     1       0.3845023574E-04       5    8    1         0.2089347396E-02      0.3074493214E-02

    ------------------------------------------------
       NWT REQUIRED            6 OUTER ITERATIONS 
       AND A TOTAL OF         10 INNER ITERATIONS.
    ------------------------------------------------

 NO OUTPUT CONTROL FOR STRESS PERIOD   36   TIME STEP   16
 
 SOLVING FOR HEAD 
                                                   Max.-Head-Change                         Max.-Flux-Residual
  Residual-Control   Outer-Iter.   Inner-Iter.     Column Row Layer    Maximum-Head-Change  Column Row Layer    Maximum-Flux-Residual          L2-NORM 
          0                 1           2             3    7     1       0.2442658422E-01       4    9    1         0.8209196829E+00      0.2919473582E+01
          0                 2           2             5    8     1       0.4474585658E-02       5    8    1         0.2452607434E+00      0.4642310734E+00
          0                 3           2             5    8     1       0.1351081078E-02       5    8    1         0.7317421044E-01      0.1141815700E+00
          0                 4           2             5    8     1       0.4078934765E-03       5    8    1         0.2215016146E-01      0.3386697136E-01
          0                 5           1             5    8     1       0.1231266228E-03       5    8    1         0.6684624893E-02      0.1014965478E-01
          0                 6           1             5    8     1       0.3716209371E-04       5    8    1         0.2017845011E-02      0.3044388453E-02

    ------------------------------------------------
       NWT REQUIRED            6 OUTER ITERATIONS 
       AND A TOTAL OF         10 INNER ITERATIONS.
    ------------------------------------------------

 NO OUTPUT CONTROL FOR STRESS PERIOD   36   TIME STEP   17
 
 SOLVING FOR HEAD 
                                                   Max.-Head-Change                         Max.-Flux-Residual
  Residual-Control   Outer-Iter.   Inner-Iter.     Column Row Layer    Maximum-Head-Change  Column Row Layer    Maximum-Flux-Residual          L2-NORM 
          0                 1           2             3    7     1       0.2417400608E-01       4    9    1         0.8116482843E+00      0.2899181215E+01
          0                 2           2             5    8     1       0.4316642314E-02       5    8    1         0.2364680181E+00      0.4607716927E+00
          0                 3           2             5    8     1       0.1304900960E-02       5    8    1         0.7060722952E-01      0.1132752734E+00
          0                 4           2             5    8     1       0.3943792270E-03       5    8    1         0.2139933985E-01      0.3359091759E-01
          0                 5           1             5    8     1       0.1191684121E-03       5    8    1         0.6464858070E-02      0.1006509805E-01
          0                 6           1             5    8     1       0.3600181107E-04       5    8    1         0.1953463119E-02      0.3018507827E-02

    ------------------------------------------------
       NWT REQUIRED            6 OUTER ITERATIONS 
       AND A TOTAL OF         10 INNER ITERATIONS.
    ------------------------------------------------

 NO OUTPUT CONTROL FOR STRESS PERIOD   36   TIME STEP   18
 
 SOLVING FOR HEAD 
                                                   Max.-Head-Change                         Max.-Flux-Residual
  Residual-Control   Outer-Iter.   Inner-Iter.     Column Row Layer    Maximum-Head-Change  Column Row Layer    Maximum-Flux-Residual          L2-NORM 
          0                 1           2             3    7     1       0.2392852081E-01       4    9    1         0.8028801998E+00      0.2879854288E+01
          0                 2           2             5    8     1       0.4174375982E-02       5    8    1         0.2285491420E+00      0.4576971417E+00
          0                 3           2             5    8     1       0.1263278970E-02       5    8    1         0.6829484907E-01      0.1125002782E+00
          0                 4           2             5    8     1       0.3821917791E-03       5    8    1         0.2072251465E-01      0.3335411692E-01
          0                 5           1             5    8     1       0.1155968404E-03       5    8    1         0.6266638818E-02      0.9992200035E-02
          0                 6           1             5    8     1       0.3495431876E-04       5    8    1         0.1895362010E-02      0.2996095184E-02

    ------------------------------------------------
       NWT REQUIRED            6 OUTER ITERATIONS 
       AND A TOTAL OF         10 INNER ITERATIONS.
    ------------------------------------------------

 NO OUTPUT CONTROL FOR STRESS PERIOD   36   TIME STEP   19
 
 SOLVING FOR HEAD 
                                                   Max.-Head-Change                         Max.-Flux-Residual
  Residual-Control   Outer-Iter.   Inner-Iter.     Column Row Layer    Maximum-Head-Change  Column Row Layer    Maximum-Flux-Residual          L2-NORM 
          0                 1           2             3    7     1       0.2368962215E-01       6    7    1         0.7947788469E+00      0.2861366869E+01
          0                 2           2             5    8     1       0.4046027433E-02       5    8    1         0.2214059054E+00      0.4549388743E+00
          0                 3           2             5    8     1       0.1225705366E-02       5    8    1         0.6620851696E-01      0.1118325426E+00
          0                 4           2             5    8     1       0.3711832267E-03       5    8    1         0.2011141823E-01      0.3314956687E-01
          0                 5           1             5    8     1       0.1123689334E-03       5    8    1         0.6087567037E-02      0.9928932627E-02
          0                 6           1             5    8     1       0.3400711372E-04       5    8    1         0.1842844117E-02      0.2976556126E-02

    ------------------------------------------------
       NWT REQUIRED            6 OUTER ITERATIONS 
       AND A TOTAL OF         10 INNER ITERATIONS.
    ------------------------------------------------

 NO OUTPUT CONTROL FOR STRESS PERIOD   36   TIME STEP   20
 
 SOLVING FOR HEAD 
                                                   Max.-Head-Change                         Max.-Flux-Residual
  Residual-Control   Outer-Iter.   Inner-Iter.     Column Row Layer    Maximum-Head-Change  Column Row Layer    Maximum-Flux-Residual          L2-NORM 
          0                 1           2             3    7     1       0.2345729771E-01       6    7    1         0.7873783577E+00      0.2843610893E+01
          0                 2           2             5    8     1       0.3929965250E-02       5    8    1         0.2149473988E+00      0.4524364207E+00
          0                 3           2             5    8     1       0.1191705921E-02       5    8    1         0.6432173732E-01      0.1112506025E+00
          0                 4           2             5    8     1       0.3612155406E-03       5    8    1         0.1955835253E-01      0.3297095324E-01
          0                 5           1             5    8     1       0.1094444657E-03       5    8    1         0.5925401108E-02      0.9873455118E-02
          0                 6           1             5    8     1       0.3314845937E-04       5    8    1         0.1795255973E-02      0.2959358550E-02

    ------------------------------------------------
       NWT REQUIRED            6 OUTER ITERATIONS 
       AND A TOTAL OF         10 INNER ITERATIONS.
    ------------------------------------------------

 NO OUTPUT CONTROL FOR STRESS PERIOD   36   TIME STEP   21
 
 SOLVING FOR HEAD 
                                                   Max.-Head-Change                         Max.-Flux-Residual
  Residual-Control   Outer-Iter.   Inner-Iter.     Column Row Layer    Maximum-Head-Change  Column Row Layer    Maximum-Flux-Residual          L2-NORM 
          0                 1           2             3    7     1       0.2323256581E-01       4    8    1         0.9403828613E+00      0.2940321549E+01
          0                 2           2             4    8     1       0.5491877155E-02       4    8    1         0.2952200765E+00      0.5193642597E+00
          0                 3           2             4    8     1       0.1690662639E-02       4    8    1         0.9034720929E-01      0.1373569919E+00
          0                 4           2             4    8     1       0.5204729458E-03       4    8    1         0.2784733996E-01      0.4159600017E-01
          0                 5           2             4    8     1       0.1602272841E-03       4    8    1         0.8571470664E-02      0.1268277717E-01
          0                 6           1             4    8     1       0.4932480891E-04       4    8    1         0.2638749117E-02      0.3870779070E-02

    ------------------------------------------------
       NWT REQUIRED            6 OUTER ITERATIONS 
       AND A TOTAL OF         11 INNER ITERATIONS.
    ------------------------------------------------

 NO OUTPUT CONTROL FOR STRESS PERIOD   36   TIME STEP   22
 
 SOLVING FOR HEAD 
                                                   Max.-Head-Change                         Max.-Flux-Residual
  Residual-Control   Outer-Iter.   Inner-Iter.     Column Row Layer    Maximum-Head-Change  Column Row Layer    Maximum-Flux-Residual          L2-NORM 
          0                 1           2             3    7     1       0.2301797695E-01       4    8    1         0.9347836862E+00      0.2942037204E+01
          0                 2           2             4    8     1       0.5463164789E-02       4    8    1         0.2936028830E+00      0.5281695427E+00
          0                 3           2             4    8     1       0.1682537446E-02       4    8    1         0.8988252649E-01      0.1415072603E+00
          0                 4           2             4    8     1       0.5182272827E-03       4    8    1         0.2771651796E-01      0.4314520622E-01
          0                 5           2             4    8     1       0.1596272559E-03       4    8    1         0.8535556247E-02      0.1323716135E-01
          0                 6           1             4    8     1       0.4917244101E-04       4    8    1         0.2629248834E-02      0.4064643422E-02

    ------------------------------------------------
       NWT REQUIRED            6 OUTER ITERATIONS 
       AND A TOTAL OF         11 INNER ITERATIONS.
    ------------------------------------------------

 NO OUTPUT CONTROL FOR STRESS PERIOD   36   TIME STEP   23
 
 SOLVING FOR HEAD 
                                                   Max.-Head-Change                         Max.-Flux-Residual
  Residual-Control   Outer-Iter.   Inner-Iter.     Column Row Layer    Maximum-Head-Change  Column Row Layer    Maximum-Flux-Residual          L2-NORM 
          0                 1           2             3    7     1       0.2281400827E-01       5    7    1         0.9536771140E+00      0.3027129274E+01
          0                 2           2             5    7     1       0.5451039392E-02       5    7    1         0.2952797769E+00      0.5769825395E+00
          0                 3           2             5    7     1       0.1660341208E-02       5    7    1         0.8944464396E-01      0.1584923148E+00
          0                 4           2             5    7     1       0.5059283834E-03       5    7    1         0.2727637460E-01      0.4838999892E-01
          0                 5           2             4    8     1       0.1558858587E-03       4    8    1         0.8323012602E-02      0.1484453504E-01
          0                 6           1             4    8     1       0.4811984994E-04       4    8    1         0.2568871801E-02      0.4556936268E-02

    ------------------------------------------------
       NWT REQUIRED            6 OUTER ITERATIONS 
       AND A TOTAL OF         11 INNER ITERATIONS.
    ------------------------------------------------

 NO OUTPUT CONTROL FOR STRESS PERIOD   36   TIME STEP   24
 
 SOLVING FOR HEAD 
                                                   Max.-Head-Change                         Max.-Flux-Residual
  Residual-Control   Outer-Iter.   Inner-Iter.     Column Row Layer    Maximum-Head-Change  Column Row Layer    Maximum-Flux-Residual          L2-NORM 
          0                 1           2             3    7     1       0.2262105123E-01       5    7    1         0.9100458790E+00      0.3005160284E+01
          0                 2           2             5    7     1       0.5226478349E-02       5    7    1         0.2827063877E+00      0.5691515740E+00
          0                 3           2             5    7     1       0.1595238397E-02       5    7    1         0.8580255411E-01      0.1559568125E+00
          0                 4           2             4    8     1       0.4925085860E-03       4    8    1         0.2628649194E-01      0.4761294738E-01
          0                 5           2             4    8     1       0.1521309147E-03       4    8    1         0.8117416072E-02      0.1460673377E-01
          0                 6           1             4    8     1       0.4699707770E-04       4    8    1         0.2507504495E-02      0.4484075301E-02

    ------------------------------------------------
       NWT REQUIRED            6 OUTER ITERATIONS 
       AND A TOTAL OF         11 INNER ITERATIONS.
    ------------------------------------------------

 NO OUTPUT CONTROL FOR STRESS PERIOD   36   TIME STEP   25
 
 SOLVING FOR HEAD 
                                                   Max.-Head-Change                         Max.-Flux-Residual
  Residual-Control   Outer-Iter.   Inner-Iter.     Column Row Layer    Maximum-Head-Change  Column Row Layer    Maximum-Flux-Residual          L2-NORM 
          0                 1           2             3    7     1       0.2243774113E-01       5    7    1         0.8714284265E+00      0.2985170996E+01
          0                 2           2             4    8     1       0.5034052716E-02       5    7    1         0.2715559553E+00      0.5621631514E+00
          0                 3           2             4    8     1       0.1555964958E-02       4    8    1         0.8288749357E-01      0.1536847371E+00
          0                 4           2             4    8     1       0.4809677233E-03       4    8    1         0.2565437330E-01      0.4691167715E-01
          0                 5           2             4    8     1       0.1486815803E-03       4    8    1         0.7928823686E-02      0.1439084520E-01
          0                 6           1             4    8     1       0.4596376844E-04       4    8    1         0.2451104685E-02      0.4417594455E-02

    ------------------------------------------------
       NWT REQUIRED            6 OUTER ITERATIONS 
       AND A TOTAL OF         11 INNER ITERATIONS.
    ------------------------------------------------

 NO OUTPUT CONTROL FOR STRESS PERIOD   36   TIME STEP   26
 
 SOLVING FOR HEAD 
                                                   Max.-Head-Change                         Max.-Flux-Residual
  Residual-Control   Outer-Iter.   Inner-Iter.     Column Row Layer    Maximum-Head-Change  Column Row Layer    Maximum-Flux-Residual          L2-NORM 
          0                 1           2             3    7     1       0.2232197862E-01       5    7    1         0.8371612596E+00      0.3040570944E+01
          0                 2           2             4    7     1       0.5007586583E-02       4    8    1         0.2652756019E+00      0.5976215220E+00
          0                 3           2             4    7     1       0.1575090047E-02       4    7    1         0.8287908689E-01      0.1675888541E+00
          0                 4           2             4    7     1       0.4949843937E-03       4    7    1         0.2607682180E-01      0.5174097685E-01
          0                 5           2             4    7     1       0.1554246522E-03       4    7    1         0.8192537377E-02      0.1604136716E-01
          0                 6           1             4    7     1       0.4876638386E-04       4    7    1         0.2571941929E-02      0.4976551515E-02

    ------------------------------------------------
       NWT REQUIRED            6 OUTER ITERATIONS 
       AND A TOTAL OF         11 INNER ITERATIONS.
    ------------------------------------------------

 NO OUTPUT CONTROL FOR STRESS PERIOD   36   TIME STEP   27
 
 SOLVING FOR HEAD 
                                                   Max.-Head-Change                         Max.-Flux-Residual
  Residual-Control   Outer-Iter.   Inner-Iter.     Column Row Layer    Maximum-Head-Change  Column Row Layer    Maximum-Flux-Residual          L2-NORM 
          0                 1           2             3    7     1       0.2227134333E-01       4    7    1         0.9729756423E+00      0.3129943221E+01
          0                 2           2             4    7     1       0.5789682311E-02       4    7    1         0.3066554445E+00      0.6458843239E+00
          0                 3           2             4    7     1       0.1810228716E-02       4    7    1         0.9567763027E-01      0.1844303526E+00
          0                 4           2             4    7     1       0.5658869053E-03       4    7    1         0.2992749193E-01      0.5713158085E-01
          0                 5           2             4    7     1       0.1768665972E-03       4    7    1         0.9354494482E-02      0.1775241386E-01
          0                 6           1             4    7     1       0.5526938641E-04       4    7    1         0.2923618617E-02      0.5518444018E-02

    ------------------------------------------------
       NWT REQUIRED            6 OUTER ITERATIONS 
       AND A TOTAL OF         11 INNER ITERATIONS.
    ------------------------------------------------

 NO OUTPUT CONTROL FOR STRESS PERIOD   36   TIME STEP   28
 
 SOLVING FOR HEAD 
                                                   Max.-Head-Change                         Max.-Flux-Residual
  Residual-Control   Outer-Iter.   Inner-Iter.     Column Row Layer    Maximum-Head-Change  Column Row Layer    Maximum-Flux-Residual          L2-NORM 
          0                 1           2             3    7     1       0.2223163736E-01       4    7    1         0.9518438497E+00      0.3161799003E+01
          0                 2           2             4    7     1       0.5674706019E-02       4    7    1         0.3003419049E+00      0.6612532794E+00
          0                 3           2             4    7     1       0.1776132481E-02       4    7    1         0.9380026965E-01      0.1892813472E+00
          0                 4           2             4    7     1       0.5558138732E-03       4    7    1         0.2937128201E-01      0.5855997884E-01
          0                 5           2             4    7     1       0.1739018241E-03       4    7    1         0.9190330759E-02      0.1817168799E-01
          0                 6           1             4    7     1       0.5440002694E-04       4    7    1         0.2875346265E-02      0.5641818343E-02

    ------------------------------------------------
       NWT REQUIRED            6 OUTER ITERATIONS 
       AND A TOTAL OF         11 INNER ITERATIONS.
    ------------------------------------------------

 NO OUTPUT CONTROL FOR STRESS PERIOD   36   TIME STEP   29
 
 SOLVING FOR HEAD 
                                                   Max.-Head-Change                         Max.-Flux-Residual
  Residual-Control   Outer-Iter.   Inner-Iter.     Column Row Layer    Maximum-Head-Change  Column Row Layer    Maximum-Flux-Residual          L2-NORM 
          0                 1           2             3    7     1       0.2218710107E-01       4    7    1         0.9324241743E+00      0.3143006004E+01
          0                 2           2             4    7     1       0.5568419582E-02       4    7    1         0.2945392376E+00      0.6527951459E+00
          0                 3           2             4    7     1       0.1744188345E-02       4    7    1         0.9206142314E-01      0.1864949047E+00
          0                 4           2             4    7     1       0.5461794651E-03       4    7    1         0.2884817812E-01      0.5770178717E-01
          0                 5           2             4    7     1       0.1709864476E-03       4    7    1         0.9032427200E-02      0.1790799730E-01
          0                 6           1             4    7     1       0.5351509542E-04       4    7    1         0.2827494482E-02      0.5560681467E-02

    ------------------------------------------------
       NWT REQUIRED            6 OUTER ITERATIONS 
       AND A TOTAL OF         11 INNER ITERATIONS.
    ------------------------------------------------

 NO OUTPUT CONTROL FOR STRESS PERIOD   36   TIME STEP   30



 STREAM LISTING     PERIOD     36   STEP       30

 LAYER ROW COL. STREAM  RCH.  FLOW INTO     FLOW TO   FLOW OUT OF   OVRLND.     DIRECT     STREAM       STREAM     STREAM     STREAM   STREAMBED  STREAMBED
                SEG.NO.  NO.  STRM. RCH.    AQUIFER    STRM. RCH.    RUNOFF     PRECIP       ET          HEAD       DEPTH      WIDTH   CONDCTNC.   GRADIENT

   1    1    1     1     1    9.7497E+00  1.4616E-01   9.6035E+00  0.000E+00  0.000E+00  0.000E+00  1.09394E+03  8.903E-01  8.349E+00  3.757E-02  1.297E+00
   1    2    2     1     2    9.6035E+00  2.2466E-01   9.3789E+00  0.000E+00  0.000E+00  0.000E+00  1.08894E+03  8.846E-01  8.262E+00  5.783E-02  1.295E+00
   1    3    3     1     3    9.3789E+00  1.8995E-01   9.1889E+00  0.000E+00  0.000E+00  0.000E+00  1.08330E+03  8.782E-01  8.163E+00  4.898E-02  1.293E+00
   1    3    4     1     4    9.1889E+00  1.7356E-01   9.0154E+00  0.000E+00  0.000E+00  0.000E+00  1.07828E+03  8.725E-01  8.076E+00  4.482E-02  1.291E+00
   1    4    5     2     1    7.0154E+00  2.7742E-01   6.7380E+00  0.000E+00  0.000E+00  0.000E+00  1.07249E+03  5.566E-01  1.200E+01  7.800E-02  1.186E+00
   1    5    6     2     2    6.7380E+00  2.1268E-01   6.5253E+00  0.000E+00  0.000E+00  0.000E+00  1.06705E+03  5.446E-01  1.200E+01  6.000E-02  1.182E+00
   1    6    6     2     3    6.5253E+00  2.1205E-01   6.3132E+00  0.000E+00  0.000E+00  0.000E+00  1.06233E+03  5.341E-01  1.200E+01  6.000E-02  1.178E+00
   1    7    6     2     4    6.3132E+00  2.1141E-01   6.1018E+00  0.000E+00  0.000E+00  0.000E+00  1.05760E+03  5.235E-01  1.200E+01  6.000E-02  1.174E+00
   1    8    6     2     5    6.1018E+00  2.1076E-01   5.8911E+00  0.000E+00  0.000E+00  0.000E+00  1.05287E+03  5.127E-01  1.200E+01  6.000E-02  1.171E+00
   1    3    5     3     1    2.0000E+00  2.8252E-01   1.7175E+00  0.000E+00  0.000E+00  0.000E+00  1.07555E+03  1.909E+00  9.636E+00  7.227E-02  1.955E+00
   1    3    6     3     2    1.7175E+00  2.4905E-01   1.4684E+00  0.000E+00  0.000E+00  0.000E+00  1.07264E+03  1.727E+00  8.909E+00  6.682E-02  1.864E+00
   1    3    7     3     3    1.4684E+00  1.9718E-01   1.2712E+00  0.000E+00  0.000E+00  0.000E+00  1.06987E+03  1.555E+00  8.218E+00  5.547E-02  1.777E+00
   1    4    8     3     4    1.2712E+00  2.2567E-01   1.0456E+00  0.000E+00  0.000E+00  0.000E+00  1.06682E+03  1.364E+00  7.455E+00  6.709E-02  1.682E+00
   1    5    8     3     5    1.0456E+00  1.5790E-01   8.8768E-01  0.000E+00  0.000E+00  0.000E+00  1.06362E+03  1.164E+00  6.655E+00  4.991E-02  1.582E+00
   1    6    8     3     6    8.8768E-01  5.5980E-02   8.3170E-01  0.000E+00  0.000E+00  0.000E+00  1.06158E+03  1.036E+00  6.145E+00  1.844E-02  1.518E+00
   1    5   10     4     1    1.0000E+01  9.0919E-02   9.9091E+00  0.000E+00  0.000E+00  0.000E+00  1.07836E+03  6.368E-01  1.000E+01  2.500E-02  1.212E+00
   1    5    9     4     2    9.9091E+00  1.8158E-01   9.7275E+00  0.000E+00  0.000E+00  0.000E+00  1.07154E+03  6.315E-01  1.000E+01  5.000E-02  1.211E+00
   1    6    8     4     3    9.7275E+00  1.2689E-01   9.6006E+00  0.000E+00  0.000E+00  0.000E+00  1.06381E+03  6.256E-01  1.000E+01  3.500E-02  1.209E+00
   1    6    8     5     1    1.0432E+01  2.2686E-01   1.0205E+01  0.000E+00  0.000E+00  0.000E+00  1.05868E+03  6.790E-01  1.542E+01  6.166E-02  1.226E+00
   1    7    7     5     2    1.0205E+01  2.7894E-01   9.9265E+00  0.000E+00  0.000E+00  0.000E+00  1.05417E+03  6.732E-01  1.519E+01  7.594E-02  1.224E+00
   1    8    7     5     3    9.9265E+00  1.9221E-01   9.7343E+00  0.000E+00  0.000E+00  0.000E+00  1.04992E+03  6.676E-01  1.497E+01  5.241E-02  1.223E+00
   1    8    6     5     4    9.7343E+00  1.3577E-01   9.5985E+00  0.000E+00  0.000E+00  0.000E+00  1.04691E+03  6.637E-01  1.482E+01  3.706E-02  1.221E+00
   1    9    6     6     1    1.5490E+01  2.3472E-01   1.5255E+01  0.000E+00  0.000E+00  0.000E+00  1.04364E+03  9.120E-01  1.200E+01  6.000E-02  1.304E+00
   1   10    7     6     2    1.5255E+01  2.3422E-01   1.5021E+01  0.000E+00  0.000E+00  0.000E+00  1.03909E+03  9.037E-01  1.200E+01  6.000E-02  1.301E+00
   1   11    7     6     3    1.5021E+01  2.3372E-01   1.4787E+01  0.000E+00  0.000E+00  0.000E+00  1.03453E+03  8.953E-01  1.200E+01  6.000E-02  1.298E+00
   1   12    7     6     4    1.4787E+01  2.3321E-01   1.4554E+01  0.000E+00  0.000E+00  0.000E+00  1.02998E+03  8.868E-01  1.200E+01  6.000E-02  1.296E+00
   1   13    7     6     5    1.4554E+01  7.7036E-03   1.4546E+01  0.000E+00  0.000E+00  0.000E+00  1.02679E+03  8.824E-01  1.200E+01  2.400E-02  1.070E-01
   1   14    9     7     1    1.5000E+02  1.4054E+00   1.4859E+02  0.000E+00  0.000E+00  0.000E+00  1.03987E+03  2.288E+00  5.529E+01  5.593E-01  8.376E-01
   1   13    8     7     2    1.4859E+02  2.0376E+00   1.4656E+02  0.000E+00  0.000E+00  0.000E+00  1.03478E+03  2.278E+00  5.525E+01  6.147E-01  1.105E+00
   1   13    7     7     3    1.4656E+02  1.7961E+00   1.4476E+02  0.000E+00  0.000E+00  0.000E+00  1.02969E+03  2.268E+00  5.521E+01  5.583E-01  1.072E+00
   1   13    6     8     1    1.5931E+02  1.1752E+00   1.5813E+02  0.000E+00  0.000E+00  0.000E+00  1.02475E+03  2.877E+00  4.172E+01  4.251E-01  9.214E-01
   1   13    5     8     2    1.5813E+02  4.1633E-01   1.5772E+02  0.000E+00  0.000E+00  0.000E+00  1.01850E+03  2.872E+00  4.164E+01  4.243E-01  3.270E-01
   1   13    4     8     3    1.5772E+02 -1.6094E+00   1.5932E+02  0.000E+00  0.000E+00  0.000E+00  1.01225E+03  2.876E+00  4.170E+01  4.249E+00 -1.262E-01
   1   13    3     8     4    1.5932E+02 -3.2396E+00   1.6256E+02  0.000E+00  0.000E+00  0.000E+00  1.00602E+03  2.892E+00  4.194E+01  4.274E+00 -2.527E-01
   1   13    2     8     5    1.6256E+02 -2.4763E+00   1.6504E+02  0.000E+00  0.000E+00  0.000E+00  9.99786E+02  2.911E+00  4.221E+01  4.302E+00 -1.919E-01
   1   13    1     8     6    1.6504E+02 -1.9548E+00   1.6700E+02  0.000E+00  0.000E+00  0.000E+00  9.94801E+02  2.926E+00  4.243E+01  2.594E+00 -2.512E-01
   1    8    6     9     1    0.0000E+00  0.0000E+00   0.0000E+00  0.000E+00  0.000E+00  0.000E+00  1.07875E+03  0.000E+00  4.000E+00  0.000E+00  1.000E+00
   1    8    5     9     2    0.0000E+00  0.0000E+00   0.0000E+00  0.000E+00  0.000E+00  0.000E+00  1.07825E+03  0.000E+00  4.000E+00  0.000E+00  1.000E+00





UNSATURATED ZONE PACKAGE VOLUMETRIC BUDGET FOR  TIME STEP    30 STRESS PERIOD   36
  ------------------------------------------------------------------------------



     CUMULATIVE VOLUMES      L**3       RATES FOR THIS TIME STEP      L**3/T
     ------------------                 ------------------------

           IN:                                      IN:
           ---                                      ---
        INFILTRATION =  6213806973.7289          INFILTRATION =           0.8475

          OUT:                                     OUT:
          ----                                     ----
              UZF ET =  1285840614.9605                UZF ET =           0.7500
        UZF RECHARGE =  4471535768.2842          UZF RECHARGE =          13.5515

            IN - OUT =   456430590.4842              IN - OUT =         -13.4540

          STORAGE:                                 STORAGE:
          --------                                 --------
      STORAGE CHANGE =   456466377.5570        STORAGE CHANGE =         -13.4540

 PERCENT DISCREPANCY IS DIFFERENCE BETWEEN IN-OUT MINUS CHANGE IN STORAGE
 DIVIDED BY THE AVERAGE OF IN AND OUT TIMES 100

 PERCENT DISCREPANCY =          -0.00     PERCENT DISCREPANCY =           0.00






1
  VOLUMETRIC BUDGET FOR AGRICULTURAL FIELDS AT  END OF TIME STEP   30, STRESS PERIOD  36
  ------------------------------------------------------------------------------

     CUMULATIVE VOLUMES      L**3       RATES FOR THIS TIME STEP      L**3/T
     ------------------                 ------------------------

           IN:                                      IN:
           ---                                      ---
               AG WELLS  =  5348740096.0000                 AG WELLS  =           0.0000
      DIVERSION SEGMENTS =   786998656.0000        DIVERSION SEGMENTS =           0.0000
           GW IRRIGATION =           0.0000             GW IRRIGATION =           0.0000
           SW IRRIGATION =           0.0000             SW IRRIGATION =           0.0000
        SYSTEM LOSSES GW =           0.0000          SYSTEM LOSSES GW =           0.0000
        SYSTEM LOSSES SW =           0.0000          SYSTEM LOSSES SW =           0.0000

                TOTAL IN =  6135738880.0000                  TOTAL IN =           0.0000

          OUT:                                     OUT:
          ----                                     ----
               AG WELLS  =           0.0000                 AG WELLS  =           0.0000
      DIVERSION SEGMENTS =           0.0000        DIVERSION SEGMENTS =           0.0000
           GW IRRIGATION =  5348740096.0000             GW IRRIGATION =           0.0000
           SW IRRIGATION =   787013952.0000             SW IRRIGATION =           0.0000
        SYSTEM LOSSES GW =           0.0000          SYSTEM LOSSES GW =           0.0000
        SYSTEM LOSSES SW =           0.0000          SYSTEM LOSSES SW =           0.0000

               TOTAL OUT =  6135754240.0000                 TOTAL OUT =           0.0000

                IN - OUT =      -15360.0000                  IN - OUT =           0.0000

     PERCENT DISCREPANCY =          -0.00         PERCENT DISCREPANCY =           0.00



1
  VOLUMETRIC BUDGET FOR ENTIRE MODEL AT END OF TIME STEP   30, STRESS PERIOD  36
  ------------------------------------------------------------------------------

     CUMULATIVE VOLUMES      L**3       RATES FOR THIS TIME STEP      L**3/T
     ------------------                 ------------------------

           IN:                                      IN:
           ---                                      ---
             STORAGE     =  5277257216.0000               STORAGE     =           2.5785
       CONSTANT HEAD     =           0.0000         CONSTANT HEAD     =           0.0000
     HEAD DEP BOUNDS     =    26614480.0000       HEAD DEP BOUNDS     =           0.2905
      STREAM LEAKAGE     =  1111139584.0000        STREAM LEAKAGE     =          12.0342
        UZF RECHARGE     =  4471535616.0000          UZF RECHARGE     =          13.5515
               GW ET     =           0.0000                 GW ET     =           0.0000
     SURFACE LEAKAGE     =           0.0000       SURFACE LEAKAGE     =           0.0000
           AG WELLS      =           0.0000             AG WELLS      =           0.0000

                TOTAL IN = 10886546432.0000                  TOTAL IN =          28.4547

          OUT:                                     OUT:
          ----                                     ----
             STORAGE     =  4615749120.0000               STORAGE     =          18.8833
       CONSTANT HEAD     =           0.0000         CONSTANT HEAD     =           0.0000
     HEAD DEP BOUNDS     =    26468378.0000       HEAD DEP BOUNDS     =           0.2871
      STREAM LEAKAGE     =   895476736.0000        STREAM LEAKAGE     =           9.2801
        UZF RECHARGE     =           0.0000          UZF RECHARGE     =           0.0000
               GW ET     =           0.0000                 GW ET     =           0.0000
     SURFACE LEAKAGE     =           0.0000       SURFACE LEAKAGE     =           0.0000
           AG WELLS      =  5348740096.0000             AG WELLS      =           0.0000

               TOTAL OUT = 10886434816.0000                 TOTAL OUT =          28.4505

                IN - OUT =      111616.0000                  IN - OUT =       4.1561E-03

     PERCENT DISCREPANCY =           0.00         PERCENT DISCREPANCY =           0.01






         TIME SUMMARY AT END OF TIME STEP   30 IN STRESS PERIOD   36
                    SECONDS     MINUTES      HOURS       DAYS        YEARS
                    -----------------------------------------------------------
   TIME STEP LENGTH  87667.      1461.1      24.352      1.0147     2.77799E-03
 STRESS PERIOD TIME 2.63000E+06  43833.      730.56      30.440     8.33397E-02
         TOTAL TIME 9.21360E+07 1.53560E+06  25593.      1066.4      2.9196    
1
1
                            STRESS PERIOD NO.   37, LENGTH =   2630000.    
                            -----------------------------------------------

                              NUMBER OF TIME STEPS =    30

                               MULTIPLIER FOR DELT =     1.000

                            INITIAL TIME STEP SIZE =   87666.66    

 REUSING NON-PARAMETER GHB CELLS FROM LAST STRESS PERIOD

      2 GHB CELLS

 REUSING STREAM SEGMENT DATA FROM LAST STRESS PERIOD



            AREAL INFILTRATION RATE
 READING ON UNIT   19 WITH FORMAT: (FREE)              

            1           2           3           4           5           6           7           8           9          10
 ........................................................................................................................
   1   1.0000E-10  2.0000E-10   0.000       0.000       0.000       0.000       0.000       0.000       0.000       0.000    
   2   2.0000E-10  1.0000E-10  2.0000E-10   0.000       0.000      8.0000E-10  8.0000E-10  5.0000E-10   0.000       0.000    
   3    0.000      5.0000E-10  1.0000E-10  1.0000E-10  8.0000E-10  8.0000E-10  5.0000E-10  5.0000E-10   0.000       0.000    
   4   8.0000E-10  5.0000E-10  1.0000E-10  1.0000E-10  1.0000E-10  1.0000E-10  1.0000E-10  1.0000E-10  2.0000E-10   0.000    
   5   8.0000E-10  5.0000E-10  1.0000E-10  1.0000E-10  1.0000E-10  1.0000E-10  1.0000E-10  1.0000E-10  1.0000E-10  1.0000E-10
   6   8.0000E-10  5.0000E-10  5.0000E-10  2.0000E-10  2.0000E-10  1.0000E-10  1.0000E-10  1.0000E-10  1.0000E-10  5.0000E-10
   7   8.0000E-10  5.0000E-10  5.0000E-10  2.0000E-10  2.0000E-10  1.0000E-10  1.0000E-10  2.0000E-10  2.0000E-10   0.000    
   8    0.000      5.0000E-10  5.0000E-10  2.0000E-10  2.0000E-10  1.0000E-10  1.0000E-10  2.0000E-10  5.0000E-10   0.000    
   9    0.000      5.0000E-10  5.0000E-10  2.0000E-10  2.0000E-10  1.0000E-10  1.0000E-10  2.0000E-10  5.0000E-10   0.000    
  10    0.000      5.0000E-10  5.0000E-10  2.0000E-10  2.0000E-10  1.0000E-10  1.0000E-10  2.0000E-10  5.0000E-10  8.0000E-10
  11    0.000      1.0000E-10  1.0000E-10  1.0000E-10  1.0000E-10  1.0000E-10  1.0000E-10  2.0000E-10  5.0000E-10   0.000    
  12   1.0000E-10  1.0000E-10  1.0000E-10  1.0000E-10  1.0000E-10  1.0000E-10  1.0000E-10  1.0000E-10  2.0000E-10   0.000    
  13   1.0000E-10  1.0000E-10  2.0000E-10  2.0000E-10  2.0000E-10  2.0000E-10  2.0000E-10  1.0000E-10  1.0000E-10   0.000    
  14    0.000      2.0000E-10  5.0000E-10  5.0000E-10  5.0000E-10  5.0000E-10  5.0000E-10  2.0000E-10  1.0000E-10   0.000    
  15    0.000       0.000      8.0000E-10  8.0000E-10  8.0000E-10  8.0000E-10   0.000       0.000       0.000       0.000    

                  ET RATE =  5.000000E-10

 USING ET EXTINCTION DEPTH FROM PREVIOUS STRESS PERIOD. CURRENT PERIOD IS:      37

 USING EXTINCTION WATER CONTENT FROM PREVIOUS STRESS PERIOD. CURRENT PERIOD IS:      37

 USING AIR ENTRY PRESSURE FROM PREVIOUS STRESS PERIOD. CURRENT PERIOD IS:      37

 USING ROOT PRESSURE HEAD FROM PREVIOUS STRESS PERIOD. CURRENT PERIOD IS:      37

 USING ROOT ACTIVITY FROM PREVIOUS STRESS PERIOD. CURRENT PERIOD IS:      37

 PROCESSING AG STRESS PERIOD DATA

 READING AG STRESS PERIOD DATA

 READING IRRIGATION SEGMENT

 READING IRRIGATION WELL

 READING SUPPLEMENTAL WELL

 END PROCESSING AG STRESS PERIOD DATA OPTIONS
 
 SOLVING FOR HEAD 
                                                   Max.-Head-Change                         Max.-Flux-Residual
  Residual-Control   Outer-Iter.   Inner-Iter.     Column Row Layer    Maximum-Head-Change  Column Row Layer    Maximum-Flux-Residual          L2-NORM 
          0                 1           2             3    7     1       0.2213804250E-01       4    7    1         0.9145033739E+00      0.3125085016E+01
          0                 2           2             4    7     1       0.5469774447E-02       4    7    1         0.2891661715E+00      0.6449336648E+00
          0                 3           2             4    7     1       0.1714451086E-02       4    7    1         0.9044633973E-01      0.1839015078E+00
          0                 4           2             4    7     1       0.5371849450E-03       4    7    1         0.2836085052E-01      0.5689976400E-01
          0                 5           2             4    7     1       0.1682573637E-03       4    7    1         0.8884907976E-02      0.1766068039E-01
          0                 6           1             4    7     1       0.5268462571E-04       4    7    1         0.2782700739E-02      0.5484376868E-02

    ------------------------------------------------
       NWT REQUIRED            6 OUTER ITERATIONS 
       AND A TOTAL OF         11 INNER ITERATIONS.
    ------------------------------------------------

 NO OUTPUT CONTROL FOR STRESS PERIOD   37   TIME STEP    1
 
 SOLVING FOR HEAD 
                                                   Max.-Head-Change                         Max.-Flux-Residual
  Residual-Control   Outer-Iter.   Inner-Iter.     Column Row Layer    Maximum-Head-Change  Column Row Layer    Maximum-Flux-Residual          L2-NORM 
          0                 1           2             3    7     1       0.2208496123E-01       4    7    1         0.8979112405E+00      0.3107627684E+01
          0                 2           2             4    7     1       0.5377919759E-02       4    7    1         0.2841744588E+00      0.6375527314E+00
          0                 3           2             4    7     1       0.1686677862E-02       4    7    1         0.8894127959E-01      0.1814696736E+00
          0                 4           2             4    7     1       0.5287607505E-03       4    7    1         0.2790537453E-01      0.5614517363E-01
          0                 5           2             4    7     1       0.1656945704E-03       4    7    1         0.8746647542E-02      0.1742732893E-01
          0                 6           1             4    7     1       0.5190284287E-04       4    7    1         0.2740609397E-02      0.5412197428E-02

    ------------------------------------------------
       NWT REQUIRED            6 OUTER ITERATIONS 
       AND A TOTAL OF         11 INNER ITERATIONS.
    ------------------------------------------------

 NO OUTPUT CONTROL FOR STRESS PERIOD   37   TIME STEP    2
 
 SOLVING FOR HEAD 
                                                   Max.-Head-Change                         Max.-Flux-Residual
  Residual-Control   Outer-Iter.   Inner-Iter.     Column Row Layer    Maximum-Head-Change  Column Row Layer    Maximum-Flux-Residual          L2-NORM 
          0                 1           2             3    7     1       0.2202854246E-01       4    7    1         0.8824857563E+00      0.3092002482E+01
          0                 2           2             4    7     1       0.5292061477E-02       4    7    1         0.2795186673E+00      0.6306769664E+00
          0                 3           2             4    7     1       0.1660645174E-02       4    7    1         0.8753346120E-01      0.1791828091E+00
          0                 4           2             4    7     1       0.5208438840E-03       4    7    1         0.2747815170E-01      0.5543336236E-01
          0                 5           2             4    7     1       0.1632802822E-03       4    7    1         0.8616631165E-02      0.1720667532E-01
          0                 6           1             4    7     1       0.5116471766E-04       4    7    1         0.2700933876E-02      0.5343804657E-02

    ------------------------------------------------
       NWT REQUIRED            6 OUTER ITERATIONS 
       AND A TOTAL OF         11 INNER ITERATIONS.
    ------------------------------------------------

 NO OUTPUT CONTROL FOR STRESS PERIOD   37   TIME STEP    3
 
 SOLVING FOR HEAD 
                                                   Max.-Head-Change                         Max.-Flux-Residual
  Residual-Control   Outer-Iter.   Inner-Iter.     Column Row Layer    Maximum-Head-Change  Column Row Layer    Maximum-Flux-Residual          L2-NORM 
          0                 1           2             3    7     1       0.2196868410E-01       4    7    1         0.8680885116E+00      0.3077094436E+01
          0                 2           2             4    7     1       0.5211500426E-02       4    7    1         0.2751592990E+00      0.6241832937E+00
          0                 3           2             4    7     1       0.1636152362E-02       4    7    1         0.8621157887E-01      0.1770194356E+00
          0                 4           2             4    7     1       0.5133765478E-03       4    7    1         0.2707593438E-01      0.5475841485E-01
          0                 5           2             4    7     1       0.1609977874E-03       4    7    1         0.8493922507E-02      0.1699703658E-01
          0                 6           1             4    7     1       0.5046539893E-04       4    7    1         0.2663403178E-02      0.5278718835E-02

    ------------------------------------------------
       NWT REQUIRED            6 OUTER ITERATIONS 
       AND A TOTAL OF         11 INNER ITERATIONS.
    ------------------------------------------------

 NO OUTPUT CONTROL FOR STRESS PERIOD   37   TIME STEP    4
 
 SOLVING FOR HEAD 
                                                   Max.-Head-Change                         Max.-Flux-Residual
  Residual-Control   Outer-Iter.   Inner-Iter.     Column Row Layer    Maximum-Head-Change  Column Row Layer    Maximum-Flux-Residual          L2-NORM 
          0                 1           2             3    7     1       0.2190748110E-01       4    6    1         0.9280512944E+00      0.3151348114E+01
          0                 2           2             4    6     1       0.5497236260E-02       4    6    1         0.2937567422E+00      0.6636856469E+00
          0                 3           2             4    6     1       0.1706147375E-02       4    6    1         0.9061049937E-01      0.1913079553E+00
          0                 4           2             4    6     1       0.5296546189E-03       4    6    1         0.2815846327E-01      0.5952339744E-01
          0                 5           2             4    7     1       0.1645493849E-03       4    6    1         0.8740580535E-02      0.1857027627E-01
          0                 6           1             4    7     1       0.5195721389E-04       4    7    1         0.2727051291E-02      0.5795761396E-02

    ------------------------------------------------
       NWT REQUIRED            6 OUTER ITERATIONS 
       AND A TOTAL OF         11 INNER ITERATIONS.
    ------------------------------------------------

 NO OUTPUT CONTROL FOR STRESS PERIOD   37   TIME STEP    5
 
 SOLVING FOR HEAD 
                                                   Max.-Head-Change                         Max.-Flux-Residual
  Residual-Control   Outer-Iter.   Inner-Iter.     Column Row Layer    Maximum-Head-Change  Column Row Layer    Maximum-Flux-Residual          L2-NORM 
          0                 1           2             3    7     1       0.2184751955E-01       4    6    1         0.1024534675E+01      0.3172823068E+01
          0                 2           2             4    6     1       0.6024701294E-02       4    6    1         0.3226164477E+00      0.6734613590E+00
          0                 3           2             4    6     1       0.1863903058E-02       4    6    1         0.9923349048E-01      0.1945254839E+00
          0                 4           2             4    6     1       0.5768701494E-03       4    6    1         0.3073809953E-01      0.6051384998E-01
          0                 5           2             4    6     1       0.1786048548E-03       4    6    1         0.9512783205E-02      0.1887446524E-01
          0                 6           1             4    6     1       0.5531760194E-04       4    6    1         0.2945575403E-02      0.5889283637E-02

    ------------------------------------------------
       NWT REQUIRED            6 OUTER ITERATIONS 
       AND A TOTAL OF         11 INNER ITERATIONS.
    ------------------------------------------------

 NO OUTPUT CONTROL FOR STRESS PERIOD   37   TIME STEP    6
 
 SOLVING FOR HEAD 
                                                   Max.-Head-Change                         Max.-Flux-Residual
  Residual-Control   Outer-Iter.   Inner-Iter.     Column Row Layer    Maximum-Head-Change  Column Row Layer    Maximum-Flux-Residual          L2-NORM 
          0                 1           2             3    7     1       0.2178843290E-01       4    6    1         0.9966987255E+00      0.3157563555E+01
          0                 2           2             4    6     1       0.5870045223E-02       4    6    1         0.3142500140E+00      0.6661062897E+00
          0                 3           2             4    6     1       0.1817056060E-02       4    6    1         0.9669610896E-01      0.1920719021E+00
          0                 4           2             4    6     1       0.5626673394E-03       4    6    1         0.2996965739E-01      0.5975095456E-01
          0                 5           2             4    6     1       0.1742952657E-03       4    6    1         0.9279747780E-02      0.1863802410E-01
          0                 6           1             4    6     1       0.5400884639E-04       4    6    1         0.2874850702E-02      0.5815962959E-02

    ------------------------------------------------
       NWT REQUIRED            6 OUTER ITERATIONS 
       AND A TOTAL OF         11 INNER ITERATIONS.
    ------------------------------------------------

 NO OUTPUT CONTROL FOR STRESS PERIOD   37   TIME STEP    7
 
 SOLVING FOR HEAD 
                                                   Max.-Head-Change                         Max.-Flux-Residual
  Residual-Control   Outer-Iter.   Inner-Iter.     Column Row Layer    Maximum-Head-Change  Column Row Layer    Maximum-Flux-Residual          L2-NORM 
          0                 1           2             3    7     1       0.2172972026E-01       4    6    1         0.9707996478E+00      0.3142808591E+01
          0                 2           2             4    6     1       0.5725840458E-02       4    6    1         0.3064545213E+00      0.6590498549E+00
          0                 3           2             4    6     1       0.1773328913E-02       4    6    1         0.9432962087E-01      0.1897160249E+00
          0                 4           2             4    6     1       0.5493967099E-03       4    6    1         0.2925220264E-01      0.5901769645E-01
          0                 5           2             4    6     1       0.1702644576E-03       4    6    1         0.9061951970E-02      0.1841056981E-01
          0                 6           1             4    6     1       0.5278353963E-04       4    6    1         0.2808684578E-02      0.5745369524E-02

    ------------------------------------------------
       NWT REQUIRED            6 OUTER ITERATIONS 
       AND A TOTAL OF         11 INNER ITERATIONS.
    ------------------------------------------------

 NO OUTPUT CONTROL FOR STRESS PERIOD   37   TIME STEP    8
 
 SOLVING FOR HEAD 
                                                   Max.-Head-Change                         Max.-Flux-Residual
  Residual-Control   Outer-Iter.   Inner-Iter.     Column Row Layer    Maximum-Head-Change  Column Row Layer    Maximum-Flux-Residual          L2-NORM 
          0                 1           2             3    7     1       0.2167116463E-01       4    6    1         0.9466594846E+00      0.3128502867E+01
          0                 2           2             4    6     1       0.5591144669E-02       4    6    1         0.2991780479E+00      0.6522688515E+00
          0                 3           2             4    6     1       0.1732443473E-02       4    6    1         0.9211866191E-01      0.1874508080E+00
          0                 4           2             4    6     1       0.5369760894E-03       4    6    1         0.2858120241E-01      0.5831203191E-01
          0                 5           2             4    6     1       0.1664881350E-03       4    6    1         0.8858056273E-02      0.1819150917E-01
          0                 6           1             4    6     1       0.5163449148E-04       4    6    1         0.2746680901E-02      0.5677335238E-02

    ------------------------------------------------
       NWT REQUIRED            6 OUTER ITERATIONS 
       AND A TOTAL OF         11 INNER ITERATIONS.
    ------------------------------------------------

 NO OUTPUT CONTROL FOR STRESS PERIOD   37   TIME STEP    9
 
 SOLVING FOR HEAD 
                                                   Max.-Head-Change                         Max.-Flux-Residual
  Residual-Control   Outer-Iter.   Inner-Iter.     Column Row Layer    Maximum-Head-Change  Column Row Layer    Maximum-Flux-Residual          L2-NORM 
          0                 1           2             3    7     1       0.2161258394E-01       4    6    1         0.9241333401E+00      0.3114603443E+01
          0                 2           2             4    6     1       0.5465189170E-02       4    6    1         0.2923783293E+00      0.6457434069E+00
          0                 3           2             4    6     1       0.1694172377E-02       4    6    1         0.9005069076E-01      0.1852701116E+00
          0                 4           2             4    6     1       0.5253381713E-03       4    6    1         0.2795294966E-01      0.5763216251E-01
          0                 5           2             4    6     1       0.1629463540E-03       4    6    1         0.8666962845E-02      0.1798031379E-01
          0                 6           1             4    7     1       0.5063373129E-04       4    6    1         0.2688514349E-02      0.5611703478E-02

    ------------------------------------------------
       NWT REQUIRED            6 OUTER ITERATIONS 
       AND A TOTAL OF         11 INNER ITERATIONS.
    ------------------------------------------------

 NO OUTPUT CONTROL FOR STRESS PERIOD   37   TIME STEP   10
 
 SOLVING FOR HEAD 
                                                   Max.-Head-Change                         Max.-Flux-Residual
  Residual-Control   Outer-Iter.   Inner-Iter.     Column Row Layer    Maximum-Head-Change  Column Row Layer    Maximum-Flux-Residual          L2-NORM 
          0                 1           2             3    7     1       0.2155382653E-01       4    6    1         0.9030764412E+00      0.3101056354E+01
          0                 2           2             4    6     1       0.5347202010E-02       4    6    1         0.2860129296E+00      0.6394496435E+00
          0                 3           2             4    6     1       0.1658286920E-02       4    6    1         0.8811311077E-01      0.1831664430E+00
          0                 4           2             4    6     1       0.5144151228E-03       4    6    1         0.2736371364E-01      0.5697584576E-01
          0                 5           2             4    6     1       0.1596189763E-03       4    6    1         0.8487564843E-02      0.1777631013E-01
          0                 6           1             4    7     1       0.5023096810E-04       4    7    1         0.2637614020E-02      0.5548269716E-02

    ------------------------------------------------
       NWT REQUIRED            6 OUTER ITERATIONS 
       AND A TOTAL OF         11 INNER ITERATIONS.
    ------------------------------------------------

 NO OUTPUT CONTROL FOR STRESS PERIOD   37   TIME STEP   11
 
 SOLVING FOR HEAD 
                                                   Max.-Head-Change                         Max.-Flux-Residual
  Residual-Control   Outer-Iter.   Inner-Iter.     Column Row Layer    Maximum-Head-Change  Column Row Layer    Maximum-Flux-Residual          L2-NORM 
          0                 1           2             3    7     1       0.2149500665E-01       4    6    1         0.8833730136E+00      0.3087833318E+01
          0                 2           2             4    6     1       0.5236566719E-02       4    6    1         0.2800480245E+00      0.6333741792E+00
          0                 3           2             4    6     1       0.1624604323E-02       4    6    1         0.8629585727E-01      0.1811357035E+00
          0                 4           2             4    6     1       0.5041527098E-03       4    6    1         0.2681051246E-01      0.5634189202E-01
          0                 5           2             4    7     1       0.1579137621E-03       4    6    1         0.8318977143E-02      0.1757915237E-01
          0                 6           1             4    7     1       0.4982114777E-04       4    7    1         0.2616532634E-02      0.5486934446E-02

    ------------------------------------------------
       NWT REQUIRED            6 OUTER ITERATIONS 
       AND A TOTAL OF         11 INNER ITERATIONS.
    ------------------------------------------------

 NO OUTPUT CONTROL FOR STRESS PERIOD   37   TIME STEP   12
 
 SOLVING FOR HEAD 
                                                   Max.-Head-Change                         Max.-Flux-Residual
  Residual-Control   Outer-Iter.   Inner-Iter.     Column Row Layer    Maximum-Head-Change  Column Row Layer    Maximum-Flux-Residual          L2-NORM 
          0                 1           2             3    7     1       0.2143553210E-01       4    6    1         0.8648894617E+00      0.3074900942E+01
          0                 2           2             4    6     1       0.5132569557E-02       4    6    1         0.2744444335E+00      0.6274986272E+00
          0                 3           2             4    6     1       0.1592912826E-02       4    6    1         0.8458727822E-01      0.1791719414E+00
          0                 4           2             4    7     1       0.4962621173E-03       4    6    1         0.2628989058E-01      0.5572850826E-01
          0                 5           2             4    7     1       0.1566282812E-03       4    7    1         0.8223560035E-02      0.1738830012E-01
          0                 6           1             4    7     1       0.4940589829E-04       4    7    1         0.2595101474E-02      0.5427534840E-02

    ------------------------------------------------
       NWT REQUIRED            6 OUTER ITERATIONS 
       AND A TOTAL OF         11 INNER ITERATIONS.
    ------------------------------------------------

 NO OUTPUT CONTROL FOR STRESS PERIOD   37   TIME STEP   13
 
 SOLVING FOR HEAD 
                                                   Max.-Head-Change                         Max.-Flux-Residual
  Residual-Control   Outer-Iter.   Inner-Iter.     Column Row Layer    Maximum-Head-Change  Column Row Layer    Maximum-Flux-Residual          L2-NORM 
          0                 1           2             3    7     1       0.2137581156E-01       4    6    1         0.8475420530E+00      0.3062237196E+01
          0                 2           2             4    6     1       0.5034765978E-02       4    6    1         0.2691777455E+00      0.6218132738E+00
          0                 3           2             4    6     1       0.1563080804E-02       4    6    1         0.8298011797E-01      0.1772722256E+00
          0                 4           2             4    7     1       0.4922313193E-03       4    7    1         0.2583771560E-01      0.5513483897E-01
          0                 5           2             4    7     1       0.1553271530E-03       4    7    1         0.8156372270E-02      0.1720350242E-01
          0                 6           1             4    7     1       0.4898718789E-04       4    7    1         0.2573431052E-02      0.5369996156E-02

    ------------------------------------------------
       NWT REQUIRED            6 OUTER ITERATIONS 
       AND A TOTAL OF         11 INNER ITERATIONS.
    ------------------------------------------------

 NO OUTPUT CONTROL FOR STRESS PERIOD   37   TIME STEP   14
 
 SOLVING FOR HEAD 
                                                   Max.-Head-Change                         Max.-Flux-Residual
  Residual-Control   Outer-Iter.   Inner-Iter.     Column Row Layer    Maximum-Head-Change  Column Row Layer    Maximum-Flux-Residual          L2-NORM 
          0                 1           2             3    7     1       0.2131553137E-01       4    6    1         0.8312261754E+00      0.3049817357E+01
          0                 2           2             4    6     1       0.4942593468E-02       4    6    1         0.2642171459E+00      0.6163029644E+00
          0                 3           2             4    7     1       0.1546318493E-02       4    6    1         0.8146518660E-01      0.1754316026E+00
          0                 4           2             4    7     1       0.4881570504E-03       4    7    1         0.2562723369E-01      0.5455938886E-01
          0                 5           2             4    7     1       0.1540166831E-03       4    7    1         0.8088523490E-02      0.1702430822E-01
          0                 6           1             4    7     1       0.4856678924E-04       4    7    1         0.2551622894E-02      0.5314182796E-02

    ------------------------------------------------
       NWT REQUIRED            6 OUTER ITERATIONS 
       AND A TOTAL OF         11 INNER ITERATIONS.
    ------------------------------------------------

 NO OUTPUT CONTROL FOR STRESS PERIOD   37   TIME STEP   15
 
 SOLVING FOR HEAD 
                                                   Max.-Head-Change                         Max.-Flux-Residual
  Residual-Control   Outer-Iter.   Inner-Iter.     Column Row Layer    Maximum-Head-Change  Column Row Layer    Maximum-Flux-Residual          L2-NORM 
          0                 1           2             3    7     1       0.2125464024E-01       4    6    1         0.8158617253E+00      0.3037623923E+01
          0                 2           2             4    6     1       0.4855620359E-02       4    6    1         0.2595390493E+00      0.6109562764E+00
          0                 3           2             4    7     1       0.1533537820E-02       4    7    1         0.8043781711E-01      0.1736463106E+00
          0                 4           2             4    7     1       0.4840486450E-03       4    7    1         0.2541442502E-01      0.5400101664E-01
          0                 5           2             4    7     1       0.1527003426E-03       4    7    1         0.8020162562E-02      0.1685046803E-01
          0                 6           1             4    7     1       0.4814632019E-04       4    7    1         0.2529737854E-02      0.5260132449E-02

    ------------------------------------------------
       NWT REQUIRED            6 OUTER ITERATIONS 
       AND A TOTAL OF         11 INNER ITERATIONS.
    ------------------------------------------------

 NO OUTPUT CONTROL FOR STRESS PERIOD   37   TIME STEP   16
 
 SOLVING FOR HEAD 
                                                   Max.-Head-Change                         Max.-Flux-Residual
  Residual-Control   Outer-Iter.   Inner-Iter.     Column Row Layer    Maximum-Head-Change  Column Row Layer    Maximum-Flux-Residual          L2-NORM 
          0                 1           2             3    7     1       0.2119279761E-01       4    6    1         0.8013732994E+00      0.2969476276E+01
          0                 2           2             4    7     1       0.4809332168E-02       4    6    1         0.2552198758E+00      0.5716625610E+00
          0                 3           2             4    7     1       0.1516618272E-02       4    7    1         0.7964904763E-01      0.1595879528E+00
          0                 4           2             4    7     1       0.4777957598E-03       4    7    1         0.2512413836E-01      0.4934364929E-01
          0                 5           2             4    7     1       0.1503930689E-03       4    7    1         0.7912758923E-02      0.1533082578E-01
          0                 6           1             4    7     1       0.4730109643E-04       4    7    1         0.2490135979E-02      0.4766405915E-02

    ------------------------------------------------
       NWT REQUIRED            6 OUTER ITERATIONS 
       AND A TOTAL OF         11 INNER ITERATIONS.
    ------------------------------------------------

 NO OUTPUT CONTROL FOR STRESS PERIOD   37   TIME STEP   17
 
 SOLVING FOR HEAD 
                                                   Max.-Head-Change                         Max.-Flux-Residual
  Residual-Control   Outer-Iter.   Inner-Iter.     Column Row Layer    Maximum-Head-Change  Column Row Layer    Maximum-Flux-Residual          L2-NORM 
          0                 1           2             3    7     1       0.2113007768E-01       4    6    1         0.7880376320E+00      0.3041422072E+01
          0                 2           2             4    7     1       0.4760276672E-02       4    6    1         0.2511274828E+00      0.5825480020E+00
          0                 3           2             4    7     1       0.1499070553E-02       4    7    1         0.7881236339E-01      0.1588921456E+00
          0                 4           2             4    7     1       0.4715748917E-03       4    7    1         0.2482493682E-01      0.4829476688E-01
          0                 5           2             4    7     1       0.1482163734E-03       4    7    1         0.7806945351E-02      0.1486738537E-01
          0                 6           1             4    7     1       0.4654979775E-04       4    7    1         0.2453224205E-02      0.4599367516E-02

    ------------------------------------------------
       NWT REQUIRED            6 OUTER ITERATIONS 
       AND A TOTAL OF         11 INNER ITERATIONS.
    ------------------------------------------------

 NO OUTPUT CONTROL FOR STRESS PERIOD   37   TIME STEP   18
 
 SOLVING FOR HEAD 
                                                   Max.-Head-Change                         Max.-Flux-Residual
  Residual-Control   Outer-Iter.   Inner-Iter.     Column Row Layer    Maximum-Head-Change  Column Row Layer    Maximum-Flux-Residual          L2-NORM 
          0                 1           2             3    7     1       0.2106603863E-01       4    7    1         0.7784316675E+00      0.2977780559E+01
          0                 2           2             4    7     1       0.4699718652E-02       4    7    1         0.2476882246E+00      0.5649032151E+00
          0                 3           2             4    7     1       0.1479034400E-02       4    7    1         0.7779135290E-01      0.1548288465E+00
          0                 4           2             4    7     1       0.4650661259E-03       4    7    1         0.2448987311E-01      0.4725519734E-01
          0                 5           2             4    7     1       0.1461240875E-03       4    7    1         0.7698436364E-02      0.1458420515E-01
          0                 6           1             4    7     1       0.4588257127E-04       4    7    1         0.2418423677E-02      0.4518754353E-02

    ------------------------------------------------
       NWT REQUIRED            6 OUTER ITERATIONS 
       AND A TOTAL OF         11 INNER ITERATIONS.
    ------------------------------------------------

 NO OUTPUT CONTROL FOR STRESS PERIOD   37   TIME STEP   19
 
 SOLVING FOR HEAD 
                                                   Max.-Head-Change                         Max.-Flux-Residual
  Residual-Control   Outer-Iter.   Inner-Iter.     Column Row Layer    Maximum-Head-Change  Column Row Layer    Maximum-Flux-Residual          L2-NORM 
          0                 1           2             3    7     1       0.2100059941E-01       4    7    1         0.7694902622E+00      0.2923931772E+01
          0                 2           2             4    7     1       0.4639781269E-02       4    7    1         0.2446517575E+00      0.5504971554E+00
          0                 3           2             4    7     1       0.1459151631E-02       4    7    1         0.7678716501E-01      0.1506381496E+00
          0                 4           2             4    7     1       0.4585188340E-03       4    7    1         0.2415647390E-01      0.4612943094E-01
          0                 5           2             4    7     1       0.1439864147E-03       4    7    1         0.7588920351E-02      0.1426469923E-01
          0                 6           1             4    7     1       0.4518919467E-04       4    7    1         0.2382733547E-02      0.4424577461E-02

    ------------------------------------------------
       NWT REQUIRED            6 OUTER ITERATIONS 
       AND A TOTAL OF         11 INNER ITERATIONS.
    ------------------------------------------------

 NO OUTPUT CONTROL FOR STRESS PERIOD   37   TIME STEP   20
 
 SOLVING FOR HEAD 
                                                   Max.-Head-Change                         Max.-Flux-Residual
  Residual-Control   Outer-Iter.   Inner-Iter.     Column Row Layer    Maximum-Head-Change  Column Row Layer    Maximum-Flux-Residual          L2-NORM 
          0                 1           2             3    7     1       0.2093318123E-01       4    7    1         0.7599645403E+00      0.2878738393E+01
          0                 2           2             4    7     1       0.4577636547E-02       4    7    1         0.2414816459E+00      0.5377840912E+00
          0                 3           2             4    7     1       0.1438910501E-02       4    7    1         0.7574817795E-01      0.1471842815E+00
          0                 4           2             4    7     1       0.4519734869E-03       4    7    1         0.2381873581E-01      0.4518013588E-01
          0                 5           2             4    7     1       0.1418814245E-03       4    7    1         0.7479880633E-02      0.1399089278E-01
          0                 6           1             4    7     1       0.4451511065E-04       4    7    1         0.2347708926E-02      0.4343028318E-02

    ------------------------------------------------
       NWT REQUIRED            6 OUTER ITERATIONS 
       AND A TOTAL OF         11 INNER ITERATIONS.
    ------------------------------------------------

 NO OUTPUT CONTROL FOR STRESS PERIOD   37   TIME STEP   21
 
 SOLVING FOR HEAD 
                                                   Max.-Head-Change                         Max.-Flux-Residual
  Residual-Control   Outer-Iter.   Inner-Iter.     Column Row Layer    Maximum-Head-Change  Column Row Layer    Maximum-Flux-Residual          L2-NORM 
          0                 1           2             3    7     1       0.2086395559E-01       6    7    1         0.7507450640E+00      0.2839372315E+01
          0                 2           2             4    7     1       0.4514382205E-02       4    7    1         0.2382263892E+00      0.5266383328E+00
          0                 3           2             4    7     1       0.1418511349E-02       4    7    1         0.7469349335E-01      0.1440944271E+00
          0                 4           2             4    7     1       0.4454315002E-03       4    7    1         0.2347911980E-01      0.4431737768E-01
          0                 5           2             4    7     1       0.1397923067E-03       4    7    1         0.7371102037E-02      0.1373938773E-01
          0                 6           1             4    7     1       0.4385017055E-04       4    7    1         0.2313004507E-02      0.4267636910E-02

    ------------------------------------------------
       NWT REQUIRED            6 OUTER ITERATIONS 
       AND A TOTAL OF         11 INNER ITERATIONS.
    ------------------------------------------------

 NO OUTPUT CONTROL FOR STRESS PERIOD   37   TIME STEP   22
 
 SOLVING FOR HEAD 
                                                   Max.-Head-Change                         Max.-Flux-Residual
  Residual-Control   Outer-Iter.   Inner-Iter.     Column Row Layer    Maximum-Head-Change  Column Row Layer    Maximum-Flux-Residual          L2-NORM 
          0                 1           2             3    7     1       0.2079289197E-01       6    7    1         0.7447727213E+00      0.2804863787E+01
          0                 2           2             4    7     1       0.4450629746E-02       4    7    1         0.2349228153E+00      0.5168876018E+00
          0                 3           2             4    7     1       0.1398113401E-02       4    7    1         0.7363277220E-01      0.1413172061E+00
          0                 4           2             4    7     1       0.4389336219E-03       4    7    1         0.2314013366E-01      0.4352916777E-01
          0                 5           2             4    7     1       0.1377292376E-03       4    7    1         0.7263222853E-02      0.1350728166E-01
          0                 6           1             4    7     1       0.4319682686E-04       4    7    1         0.2278778472E-02      0.4197637665E-02

    ------------------------------------------------
       NWT REQUIRED            6 OUTER ITERATIONS 
       AND A TOTAL OF         11 INNER ITERATIONS.
    ------------------------------------------------

 NO OUTPUT CONTROL FOR STRESS PERIOD   37   TIME STEP   23
 
 SOLVING FOR HEAD 
                                                   Max.-Head-Change                         Max.-Flux-Residual
  Residual-Control   Outer-Iter.   Inner-Iter.     Column Row Layer    Maximum-Head-Change  Column Row Layer    Maximum-Flux-Residual          L2-NORM 
          0                 1           2             3    7     1       0.2071947340E-01       6    7    1         0.7385062310E+00      0.2774236271E+01
          0                 2           2             4    7     1       0.4387027015E-02       4    7    1         0.2316087534E+00      0.5080586491E+00
          0                 3           2             4    7     1       0.1377892185E-02       4    7    1         0.7257636247E-01      0.1388049841E+00
          0                 4           2             4    7     1       0.4325271083E-03       4    7    1         0.2280457320E-01      0.4280639284E-01
          0                 5           2             4    7     1       0.1357048326E-03       4    7    1         0.7156994550E-02      0.1329246921E-01
          0                 6           1             4    7     1       0.4255841092E-04       4    7    1         0.2245230978E-02      0.4132496072E-02

    ------------------------------------------------
       NWT REQUIRED            6 OUTER ITERATIONS 
       AND A TOTAL OF         11 INNER ITERATIONS.
    ------------------------------------------------

 NO OUTPUT CONTROL FOR STRESS PERIOD   37   TIME STEP   24
 
 SOLVING FOR HEAD 
                                                   Max.-Head-Change                         Max.-Flux-Residual
  Residual-Control   Outer-Iter.   Inner-Iter.     Column Row Layer    Maximum-Head-Change  Column Row Layer    Maximum-Flux-Residual          L2-NORM 
          0                 1           2             3    7     1       0.2064403229E-01       4    5    1         0.7340125337E+00      0.2746976707E+01
          0                 2           2             4    7     1       0.4323974657E-02       4    7    1         0.2283088467E+00      0.5002697136E+00
          0                 3           2             4    7     1       0.1357949123E-02       4    7    1         0.7153054585E-01      0.1365248767E+00
          0                 4           2             4    7     1       0.4262369444E-03       4    7    1         0.2247402254E-01      0.4214069456E-01
          0                 5           2             4    7     1       0.1337249985E-03       4    7    1         0.7052803874E-02      0.1309290687E-01
          0                 6           1             4    7     1       0.4193622493E-04       4    7    1         0.2212452232E-02      0.4071667390E-02

    ------------------------------------------------
       NWT REQUIRED            6 OUTER ITERATIONS 
       AND A TOTAL OF         11 INNER ITERATIONS.
    ------------------------------------------------

 NO OUTPUT CONTROL FOR STRESS PERIOD   37   TIME STEP   25
 
 SOLVING FOR HEAD 
                                                   Max.-Head-Change                         Max.-Flux-Residual
  Residual-Control   Outer-Iter.   Inner-Iter.     Column Row Layer    Maximum-Head-Change  Column Row Layer    Maximum-Flux-Residual          L2-NORM 
          0                 1           2             3    7     1       0.2056695094E-01       4    5    1         0.7329469293E+00      0.2722533289E+01
          0                 2           2             4    7     1       0.4261868776E-02       4    7    1         0.2250466650E+00      0.4932831937E+00
          0                 3           2             4    7     1       0.1338388874E-02       4    7    1         0.7050160689E-01      0.1344444705E+00
          0                 4           2             4    7     1       0.4200904389E-03       4    7    1         0.2215013696E-01      0.4152522219E-01
          0                 5           2             4    7     1       0.1317967380E-03       4    7    1         0.6951081205E-02      0.1290693856E-01
          0                 6           1             4    7     1       0.4133202193E-04       4    7    1         0.2180551951E-02      0.4014755905E-02

    ------------------------------------------------
       NWT REQUIRED            6 OUTER ITERATIONS 
       AND A TOTAL OF         11 INNER ITERATIONS.
    ------------------------------------------------

 NO OUTPUT CONTROL FOR STRESS PERIOD   37   TIME STEP   26
 
 SOLVING FOR HEAD 
                                                   Max.-Head-Change                         Max.-Flux-Residual
  Residual-Control   Outer-Iter.   Inner-Iter.     Column Row Layer    Maximum-Head-Change  Column Row Layer    Maximum-Flux-Residual          L2-NORM 
          0                 1           2             3    7     1       0.2048806658E-01       4    5    1         0.7316829637E+00      0.2700449039E+01
          0                 2           2             4    7     1       0.4200934410E-02       4    7    1         0.2218364207E+00      0.4869780965E+00
          0                 3           2             4    7     1       0.1319265139E-02       4    7    1         0.6949303437E-01      0.1325367077E+00
          0                 4           2             4    7     1       0.4140996961E-03       4    7    1         0.2183373928E-01      0.4095383537E-01
          0                 5           2             4    7     1       0.1299224876E-03       4    7    1         0.6852008305E-02      0.1273308762E-01
          0                 6           1             4    7     1       0.4074620709E-04       4    7    1         0.2149565102E-02      0.3961431644E-02

    ------------------------------------------------
       NWT REQUIRED            6 OUTER ITERATIONS 
       AND A TOTAL OF         11 INNER ITERATIONS.
    ------------------------------------------------

 NO OUTPUT CONTROL FOR STRESS PERIOD   37   TIME STEP   27
 
 SOLVING FOR HEAD 
                                                   Max.-Head-Change                         Max.-Flux-Residual
  Residual-Control   Outer-Iter.   Inner-Iter.     Column Row Layer    Maximum-Head-Change  Column Row Layer    Maximum-Flux-Residual          L2-NORM 
          0                 1           2             3    7     1       0.2040722947E-01       4    5    1         0.7302574701E+00      0.2680357715E+01
          0                 2           2             4    7     1       0.4141379258E-02       4    7    1         0.2186909288E+00      0.4812569927E+00
          0                 3           2             4    7     1       0.1300629548E-02       4    7    1         0.6850807848E-01      0.1307796840E+00
          0                 4           2             4    7     1       0.4082770664E-03       4    7    1         0.2152563103E-01      0.4042204754E-01
          0                 5           2             4    7     1       0.1281051888E-03       4    7    1         0.6755774524E-02      0.1257071623E-01
          0                 6           1             4    7     1       0.4017946022E-04       4    7    1         0.2119536997E-02      0.3911512855E-02

    ------------------------------------------------
       NWT REQUIRED            6 OUTER ITERATIONS 
       AND A TOTAL OF         11 INNER ITERATIONS.
    ------------------------------------------------

 NO OUTPUT CONTROL FOR STRESS PERIOD   37   TIME STEP   28
 
 SOLVING FOR HEAD 
                                                   Max.-Head-Change                         Max.-Flux-Residual
  Residual-Control   Outer-Iter.   Inner-Iter.     Column Row Layer    Maximum-Head-Change  Column Row Layer    Maximum-Flux-Residual          L2-NORM 
          0                 1           2             3    7     1       0.2032479457E-01       4    5    1         0.7286612174E+00      0.2661944033E+01
          0                 2           2             4    7     1       0.4083354801E-02       4    7    1         0.2156198300E+00      0.4760346205E+00
          0                 3           2             4    7     1       0.1282518164E-02       4    7    1         0.6754908058E-01      0.1291551504E+00
          0                 4           2             4    7     1       0.4026308440E-03       4    7    1         0.2122636488E-01      0.3992458420E-01
          0                 5           2             4    7     1       0.1263463260E-03       4    7    1         0.6662505551E-02      0.1241699461E-01
          0                 6           1             4    7     1       0.3963176681E-04       4    7    1         0.2090487430E-02      0.3863658070E-02

    ------------------------------------------------
       NWT REQUIRED            6 OUTER ITERATIONS 
       AND A TOTAL OF         11 INNER ITERATIONS.
    ------------------------------------------------

 NO OUTPUT CONTROL FOR STRESS PERIOD   37   TIME STEP   29
 
 SOLVING FOR HEAD 
                                                   Max.-Head-Change                         Max.-Flux-Residual
  Residual-Control   Outer-Iter.   Inner-Iter.     Column Row Layer    Maximum-Head-Change  Column Row Layer    Maximum-Flux-Residual          L2-NORM 
          0                 1           2             3    7     1       0.2023783899E-01       4    5    1         0.7269291278E+00      0.2635266547E+01
          0                 2           2             4    6     1       0.3966858433E-02       4    6    1         0.2122609437E+00      0.4516461389E+00
          0                 3           2             4    6     1       0.1232048368E-02       4    6    1         0.6537101376E-01      0.1183532508E+00
          0                 4           2             4    6     1       0.3825532066E-03       4    6    1         0.2033804943E-01      0.3601011779E-01
          0                 5           2             4    6     1       0.1187571221E-03       4    6    1         0.6313127270E-02      0.1108717690E-01
          0                 6           1             4    6     1       0.3685932779E-04       4    6    1         0.1959739662E-02      0.3423604162E-02

    ------------------------------------------------
       NWT REQUIRED            6 OUTER ITERATIONS 
       AND A TOTAL OF         11 INNER ITERATIONS.
    ------------------------------------------------

 NO OUTPUT CONTROL FOR STRESS PERIOD   37   TIME STEP   30



 STREAM LISTING     PERIOD     37   STEP       30

 LAYER ROW COL. STREAM  RCH.  FLOW INTO     FLOW TO   FLOW OUT OF   OVRLND.     DIRECT     STREAM       STREAM     STREAM     STREAM   STREAMBED  STREAMBED
                SEG.NO.  NO.  STRM. RCH.    AQUIFER    STRM. RCH.    RUNOFF     PRECIP       ET          HEAD       DEPTH      WIDTH   CONDCTNC.   GRADIENT

   1    1    1     1     1    8.6247E+00  1.3546E-01   8.4893E+00  0.000E+00  0.000E+00  0.000E+00  1.09390E+03  8.549E-01  7.809E+00  3.514E-02  1.285E+00
   1    2    2     1     2    8.4893E+00  2.0809E-01   8.2812E+00  0.000E+00  0.000E+00  0.000E+00  1.08891E+03  8.492E-01  7.723E+00  5.406E-02  1.283E+00
   1    3    3     1     3    8.2812E+00  1.7583E-01   8.1054E+00  0.000E+00  0.000E+00  0.000E+00  1.08326E+03  8.427E-01  7.626E+00  4.576E-02  1.281E+00
   1    3    4     1     4    8.1054E+00  1.6058E-01   7.9448E+00  0.000E+00  0.000E+00  0.000E+00  1.07824E+03  8.369E-01  7.541E+00  4.185E-02  1.279E+00
   1    4    5     2     1    5.9448E+00  2.7323E-01   5.6716E+00  0.000E+00  0.000E+00  0.000E+00  1.07244E+03  5.030E-01  1.200E+01  7.800E-02  1.168E+00
   1    5    6     2     2    5.6716E+00  2.0942E-01   5.4621E+00  0.000E+00  0.000E+00  0.000E+00  1.06700E+03  4.904E-01  1.200E+01  6.000E-02  1.163E+00
   1    6    6     2     3    5.4621E+00  2.0875E-01   5.2534E+00  0.000E+00  0.000E+00  0.000E+00  1.06227E+03  4.792E-01  1.200E+01  6.000E-02  1.160E+00
   1    7    6     2     4    5.2534E+00  2.0808E-01   5.0453E+00  0.000E+00  0.000E+00  0.000E+00  1.05754E+03  4.679E-01  1.200E+01  6.000E-02  1.156E+00
   1    8    6     2     5    5.0453E+00  2.0739E-01   4.8379E+00  0.000E+00  0.000E+00  0.000E+00  1.05282E+03  4.565E-01  1.200E+01  6.000E-02  1.152E+00
   1    3    5     3     1    2.0000E+00  2.8252E-01   1.7175E+00  0.000E+00  0.000E+00  0.000E+00  1.07555E+03  1.909E+00  9.636E+00  7.227E-02  1.955E+00
   1    3    6     3     2    1.7175E+00  2.4905E-01   1.4684E+00  0.000E+00  0.000E+00  0.000E+00  1.07264E+03  1.727E+00  8.909E+00  6.682E-02  1.864E+00
   1    3    7     3     3    1.4684E+00  1.9718E-01   1.2712E+00  0.000E+00  0.000E+00  0.000E+00  1.06987E+03  1.555E+00  8.218E+00  5.547E-02  1.777E+00
   1    4    8     3     4    1.2712E+00  2.2567E-01   1.0456E+00  0.000E+00  0.000E+00  0.000E+00  1.06682E+03  1.364E+00  7.455E+00  6.709E-02  1.682E+00
   1    5    8     3     5    1.0456E+00  1.5790E-01   8.8768E-01  0.000E+00  0.000E+00  0.000E+00  1.06362E+03  1.164E+00  6.655E+00  4.991E-02  1.582E+00
   1    6    8     3     6    8.8768E-01  5.5980E-02   8.3170E-01  0.000E+00  0.000E+00  0.000E+00  1.06158E+03  1.036E+00  6.145E+00  1.844E-02  1.518E+00
   1    5   10     4     1    1.0000E+01  9.0919E-02   9.9091E+00  0.000E+00  0.000E+00  0.000E+00  1.07836E+03  6.368E-01  1.000E+01  2.500E-02  1.212E+00
   1    5    9     4     2    9.9091E+00  1.8158E-01   9.7275E+00  0.000E+00  0.000E+00  0.000E+00  1.07154E+03  6.315E-01  1.000E+01  5.000E-02  1.211E+00
   1    6    8     4     3    9.7275E+00  1.2689E-01   9.6006E+00  0.000E+00  0.000E+00  0.000E+00  1.06381E+03  6.256E-01  1.000E+01  3.500E-02  1.209E+00
   1    6    8     5     1    1.0432E+01  2.2686E-01   1.0205E+01  0.000E+00  0.000E+00  0.000E+00  1.05868E+03  6.790E-01  1.542E+01  6.166E-02  1.226E+00
   1    7    7     5     2    1.0205E+01  2.7894E-01   9.9265E+00  0.000E+00  0.000E+00  0.000E+00  1.05417E+03  6.732E-01  1.519E+01  7.594E-02  1.224E+00
   1    8    7     5     3    9.9265E+00  1.9221E-01   9.7343E+00  0.000E+00  0.000E+00  0.000E+00  1.04992E+03  6.676E-01  1.497E+01  5.241E-02  1.223E+00
   1    8    6     5     4    9.7343E+00  1.3577E-01   9.5985E+00  0.000E+00  0.000E+00  0.000E+00  1.04691E+03  6.637E-01  1.482E+01  3.706E-02  1.221E+00
   1    9    6     6     1    1.4436E+01  2.3244E-01   1.4204E+01  0.000E+00  0.000E+00  0.000E+00  1.04360E+03  8.741E-01  1.200E+01  6.000E-02  1.291E+00
   1   10    7     6     2    1.4204E+01  2.3193E-01   1.3972E+01  0.000E+00  0.000E+00  0.000E+00  1.03905E+03  8.655E-01  1.200E+01  6.000E-02  1.289E+00
   1   11    7     6     3    1.3972E+01  2.3142E-01   1.3741E+01  0.000E+00  0.000E+00  0.000E+00  1.03449E+03  8.570E-01  1.200E+01  6.000E-02  1.286E+00
   1   12    7     6     4    1.3741E+01  2.3090E-01   1.3510E+01  0.000E+00  0.000E+00  0.000E+00  1.02994E+03  8.484E-01  1.200E+01  6.000E-02  1.283E+00
   1   13    7     6     5    1.3510E+01  7.0735E-03   1.3503E+01  0.000E+00  0.000E+00  0.000E+00  1.02675E+03  8.439E-01  1.200E+01  2.400E-02  9.824E-02
   1   14    9     7     1    1.5000E+02  1.4062E+00   1.4859E+02  0.000E+00  0.000E+00  0.000E+00  1.03987E+03  2.288E+00  5.529E+01  5.593E-01  8.381E-01
   1   13    8     7     2    1.4859E+02  2.0403E+00   1.4655E+02  0.000E+00  0.000E+00  0.000E+00  1.03478E+03  2.278E+00  5.525E+01  6.147E-01  1.106E+00
   1   13    7     7     3    1.4655E+02  1.8030E+00   1.4475E+02  0.000E+00  0.000E+00  0.000E+00  1.02969E+03  2.268E+00  5.521E+01  5.583E-01  1.076E+00
   1   13    6     8     1    1.5825E+02  1.1760E+00   1.5708E+02  0.000E+00  0.000E+00  0.000E+00  1.02474E+03  2.870E+00  4.161E+01  4.241E-01  9.244E-01
   1   13    5     8     2    1.5708E+02  4.1762E-01   1.5666E+02  0.000E+00  0.000E+00  0.000E+00  1.01849E+03  2.865E+00  4.154E+01  4.233E-01  3.289E-01
   1   13    4     8     3    1.5666E+02 -1.6038E+00   1.5826E+02  0.000E+00  0.000E+00  0.000E+00  1.01224E+03  2.869E+00  4.159E+01  4.239E+00 -1.261E-01
   1   13    3     8     4    1.5826E+02 -3.2319E+00   1.6150E+02  0.000E+00  0.000E+00  0.000E+00  1.00601E+03  2.885E+00  4.183E+01  4.263E+00 -2.527E-01
   1   13    2     8     5    1.6150E+02 -2.4741E+00   1.6397E+02  0.000E+00  0.000E+00  0.000E+00  9.99779E+02  2.904E+00  4.211E+01  4.291E+00 -1.922E-01
   1   13    1     8     6    1.6397E+02 -1.9550E+00   1.6592E+02  0.000E+00  0.000E+00  0.000E+00  9.94794E+02  2.919E+00  4.233E+01  2.588E+00 -2.518E-01
   1    8    6     9     1    0.0000E+00  0.0000E+00   0.0000E+00  0.000E+00  0.000E+00  0.000E+00  1.07875E+03  0.000E+00  4.000E+00  0.000E+00  1.000E+00
   1    8    5     9     2    0.0000E+00  0.0000E+00   0.0000E+00  0.000E+00  0.000E+00  0.000E+00  1.07825E+03  0.000E+00  4.000E+00  0.000E+00  1.000E+00





UNSATURATED ZONE PACKAGE VOLUMETRIC BUDGET FOR  TIME STEP    30 STRESS PERIOD   37
  ------------------------------------------------------------------------------



     CUMULATIVE VOLUMES      L**3       RATES FOR THIS TIME STEP      L**3/T
     ------------------                 ------------------------

           IN:                                      IN:
           ---                                      ---
        INFILTRATION =  6216035898.6017          INFILTRATION =           0.8475

          OUT:                                     OUT:
          ----                                     ----
              UZF ET =  1287813114.8354                UZF ET =           0.7500
        UZF RECHARGE =  4505269887.1846          UZF RECHARGE =          10.2057

            IN - OUT =   422952896.5816              IN - OUT =         -10.1082

          STORAGE:                                 STORAGE:
          --------                                 --------
      STORAGE CHANGE =   422988683.6652        STORAGE CHANGE =         -10.1082

 PERCENT DISCREPANCY IS DIFFERENCE BETWEEN IN-OUT MINUS CHANGE IN STORAGE
 DIVIDED BY THE AVERAGE OF IN AND OUT TIMES 100

 PERCENT DISCREPANCY =          -0.00     PERCENT DISCREPANCY =           0.00






1
  VOLUMETRIC BUDGET FOR AGRICULTURAL FIELDS AT  END OF TIME STEP   30, STRESS PERIOD  37
  ------------------------------------------------------------------------------

     CUMULATIVE VOLUMES      L**3       RATES FOR THIS TIME STEP      L**3/T
     ------------------                 ------------------------

           IN:                                      IN:
           ---                                      ---
               AG WELLS  =  5348740096.0000                 AG WELLS  =           0.0000
      DIVERSION SEGMENTS =   786998656.0000        DIVERSION SEGMENTS =           0.0000
           GW IRRIGATION =           0.0000             GW IRRIGATION =           0.0000
           SW IRRIGATION =           0.0000             SW IRRIGATION =           0.0000
        SYSTEM LOSSES GW =           0.0000          SYSTEM LOSSES GW =           0.0000
        SYSTEM LOSSES SW =           0.0000          SYSTEM LOSSES SW =           0.0000

                TOTAL IN =  6135738880.0000                  TOTAL IN =           0.0000

          OUT:                                     OUT:
          ----                                     ----
               AG WELLS  =           0.0000                 AG WELLS  =           0.0000
      DIVERSION SEGMENTS =           0.0000        DIVERSION SEGMENTS =           0.0000
           GW IRRIGATION =  5348740096.0000             GW IRRIGATION =           0.0000
           SW IRRIGATION =   787013952.0000             SW IRRIGATION =           0.0000
        SYSTEM LOSSES GW =           0.0000          SYSTEM LOSSES GW =           0.0000
        SYSTEM LOSSES SW =           0.0000          SYSTEM LOSSES SW =           0.0000

               TOTAL OUT =  6135754240.0000                 TOTAL OUT =           0.0000

                IN - OUT =      -15360.0000                  IN - OUT =           0.0000

     PERCENT DISCREPANCY =          -0.00         PERCENT DISCREPANCY =           0.00



1
  VOLUMETRIC BUDGET FOR ENTIRE MODEL AT END OF TIME STEP   30, STRESS PERIOD  37
  ------------------------------------------------------------------------------

     CUMULATIVE VOLUMES      L**3       RATES FOR THIS TIME STEP      L**3/T
     ------------------                 ------------------------

           IN:                                      IN:
           ---                                      ---
             STORAGE     =  5283595264.0000               STORAGE     =           2.4235
       CONSTANT HEAD     =           0.0000         CONSTANT HEAD     =           0.0000
     HEAD DEP BOUNDS     =    27378554.0000       HEAD DEP BOUNDS     =           0.2906
      STREAM LEAKAGE     =  1142586368.0000        STREAM LEAKAGE     =          11.9652
        UZF RECHARGE     =  4505269248.0000          UZF RECHARGE     =          10.2057
               GW ET     =           0.0000                 GW ET     =           0.0000
     SURFACE LEAKAGE     =           0.0000       SURFACE LEAKAGE     =           0.0000
           AG WELLS      =           0.0000             AG WELLS      =           0.0000

                TOTAL IN = 10958829568.0000                  TOTAL IN =          24.8849

          OUT:                                     OUT:
          ----                                     ----
             STORAGE     =  4662816256.0000               STORAGE     =          15.3311
       CONSTANT HEAD     =           0.0000         CONSTANT HEAD     =           0.0000
     HEAD DEP BOUNDS     =    27223076.0000       HEAD DEP BOUNDS     =           0.2869
      STREAM LEAKAGE     =   919927232.0000        STREAM LEAKAGE     =           9.2648
        UZF RECHARGE     =           0.0000          UZF RECHARGE     =           0.0000
               GW ET     =           0.0000                 GW ET     =           0.0000
     SURFACE LEAKAGE     =           0.0000       SURFACE LEAKAGE     =           0.0000
           AG WELLS      =  5348740096.0000             AG WELLS      =           0.0000

               TOTAL OUT = 10958706688.0000                 TOTAL OUT =          24.8828

                IN - OUT =      122880.0000                  IN - OUT =       2.0962E-03

     PERCENT DISCREPANCY =           0.00         PERCENT DISCREPANCY =           0.01






         TIME SUMMARY AT END OF TIME STEP   30 IN STRESS PERIOD   37
                    SECONDS     MINUTES      HOURS       DAYS        YEARS
                    -----------------------------------------------------------
   TIME STEP LENGTH  87667.      1461.1      24.352      1.0147     2.77799E-03
 STRESS PERIOD TIME 2.63000E+06  43833.      730.56      30.440     8.33397E-02
         TOTAL TIME 9.47660E+07 1.57943E+06  26324.      1096.8      3.0030    
1
1
                            STRESS PERIOD NO.   38, LENGTH =   2630000.    
                            -----------------------------------------------

                              NUMBER OF TIME STEPS =    30

                               MULTIPLIER FOR DELT =     1.000

                            INITIAL TIME STEP SIZE =   87666.66    

 REUSING NON-PARAMETER GHB CELLS FROM LAST STRESS PERIOD

      2 GHB CELLS

 REUSING STREAM SEGMENT DATA FROM LAST STRESS PERIOD



            AREAL INFILTRATION RATE
 READING ON UNIT   19 WITH FORMAT: (FREE)              

            1           2           3           4           5           6           7           8           9          10
 ........................................................................................................................
   1   1.0000E-10  2.0000E-10   0.000       0.000       0.000       0.000       0.000       0.000       0.000       0.000    
   2   2.0000E-10  1.0000E-10  2.0000E-10   0.000       0.000      8.0000E-10  8.0000E-10  5.0000E-10   0.000       0.000    
   3    0.000      5.0000E-10  1.0000E-10  1.0000E-10  8.0000E-10  8.0000E-10  5.0000E-10  5.0000E-10   0.000       0.000    
   4   8.0000E-10  5.0000E-10  1.0000E-10  1.0000E-10  1.0000E-10  1.0000E-10  1.0000E-10  1.0000E-10  2.0000E-10   0.000    
   5   8.0000E-10  5.0000E-10  1.0000E-10  1.0000E-10  1.0000E-10  1.0000E-10  1.0000E-10  1.0000E-10  1.0000E-10  1.0000E-10
   6   8.0000E-10  5.0000E-10  5.0000E-10  2.0000E-10  2.0000E-10  1.0000E-10  1.0000E-10  1.0000E-10  1.0000E-10  5.0000E-10
   7   8.0000E-10  5.0000E-10  5.0000E-10  2.0000E-10  2.0000E-10  1.0000E-10  1.0000E-10  2.0000E-10  2.0000E-10   0.000    
   8    0.000      5.0000E-10  5.0000E-10  2.0000E-10  2.0000E-10  1.0000E-10  1.0000E-10  2.0000E-10  5.0000E-10   0.000    
   9    0.000      5.0000E-10  5.0000E-10  2.0000E-10  2.0000E-10  1.0000E-10  1.0000E-10  2.0000E-10  5.0000E-10   0.000    
  10    0.000      5.0000E-10  5.0000E-10  2.0000E-10  2.0000E-10  1.0000E-10  1.0000E-10  2.0000E-10  5.0000E-10  8.0000E-10
  11    0.000      1.0000E-10  1.0000E-10  1.0000E-10  1.0000E-10  1.0000E-10  1.0000E-10  2.0000E-10  5.0000E-10   0.000    
  12   1.0000E-10  1.0000E-10  1.0000E-10  1.0000E-10  1.0000E-10  1.0000E-10  1.0000E-10  1.0000E-10  2.0000E-10   0.000    
  13   1.0000E-10  1.0000E-10  2.0000E-10  2.0000E-10  2.0000E-10  2.0000E-10  2.0000E-10  1.0000E-10  1.0000E-10   0.000    
  14    0.000      2.0000E-10  5.0000E-10  5.0000E-10  5.0000E-10  5.0000E-10  5.0000E-10  2.0000E-10  1.0000E-10   0.000    
  15    0.000       0.000      8.0000E-10  8.0000E-10  8.0000E-10  8.0000E-10   0.000       0.000       0.000       0.000    

                  ET RATE =  5.000000E-10

 USING ET EXTINCTION DEPTH FROM PREVIOUS STRESS PERIOD. CURRENT PERIOD IS:      38

 USING EXTINCTION WATER CONTENT FROM PREVIOUS STRESS PERIOD. CURRENT PERIOD IS:      38

 USING AIR ENTRY PRESSURE FROM PREVIOUS STRESS PERIOD. CURRENT PERIOD IS:      38

 USING ROOT PRESSURE HEAD FROM PREVIOUS STRESS PERIOD. CURRENT PERIOD IS:      38

 USING ROOT ACTIVITY FROM PREVIOUS STRESS PERIOD. CURRENT PERIOD IS:      38

 PROCESSING AG STRESS PERIOD DATA

 READING AG STRESS PERIOD DATA

 READING IRRIGATION SEGMENT

 READING IRRIGATION WELL

 READING SUPPLEMENTAL WELL

 END PROCESSING AG STRESS PERIOD DATA OPTIONS
 
 SOLVING FOR HEAD 
                                                   Max.-Head-Change                         Max.-Flux-Residual
  Residual-Control   Outer-Iter.   Inner-Iter.     Column Row Layer    Maximum-Head-Change  Column Row Layer    Maximum-Flux-Residual          L2-NORM 
          0                 1           2             3    7     1       0.2014009477E-01       4    8    1        -0.8838660388E+00      0.2721897612E+01
          0                 2           2             4    6     1       0.3910329857E-02       4    6    1         0.2093817972E+00      0.4767302918E+00
          0                 3           2             4    6     1       0.1213418847E-02       4    6    1         0.6442542849E-01      0.1221323170E+00
          0                 4           2             4    6     1       0.3764129415E-03       4    6    1         0.2002615655E-01      0.3614811490E-01
          0                 5           2             4    6     1       0.1167371839E-03       4    6    1         0.6210345902E-02      0.1093981040E-01
          0                 6           1             4    6     1       0.3619682903E-04       4    6    1         0.1925946466E-02      0.3343437471E-02

    ------------------------------------------------
       NWT REQUIRED            6 OUTER ITERATIONS 
       AND A TOTAL OF         11 INNER ITERATIONS.
    ------------------------------------------------

 NO OUTPUT CONTROL FOR STRESS PERIOD   38   TIME STEP    1
 
 SOLVING FOR HEAD 
                                                   Max.-Head-Change                         Max.-Flux-Residual
  Residual-Control   Outer-Iter.   Inner-Iter.     Column Row Layer    Maximum-Head-Change  Column Row Layer    Maximum-Flux-Residual          L2-NORM 
          0                 1           2             3    7     1       0.1998151337E-01       4    8    1        -0.8033924681E+00      0.2667323453E+01
          0                 2           2             4    6     1       0.3852980601E-02       4    6    1         0.2064186511E+00      0.4615510664E+00
          0                 3           2             4    6     1       0.1194981137E-02       4    6    1         0.6347032757E-01      0.1181441139E+00
          0                 4           2             4    6     1       0.3705128506E-03       4    6    1         0.1971940167E-01      0.3510831456E-01
          0                 5           2             4    6     1       0.1148562133E-03       4    6    1         0.6112290868E-02      0.1065402731E-01
          0                 6           1             4    6     1       0.3559900573E-04       4    6    1         0.1894712669E-02      0.3261380191E-02

    ------------------------------------------------
       NWT REQUIRED            6 OUTER ITERATIONS 
       AND A TOTAL OF         11 INNER ITERATIONS.
    ------------------------------------------------

 NO OUTPUT CONTROL FOR STRESS PERIOD   38   TIME STEP    2
 
 SOLVING FOR HEAD 
                                                   Max.-Head-Change                         Max.-Flux-Residual
  Residual-Control   Outer-Iter.   Inner-Iter.     Column Row Layer    Maximum-Head-Change  Column Row Layer    Maximum-Flux-Residual          L2-NORM 
          0                 1           2             3    7     1       0.1982826629E-01       5    7    1        -0.8899778293E+00      0.2728405511E+01
          0                 2           2             4    6     1       0.3784576854E-02       4    6    1         0.2031971213E+00      0.4597978701E+00
          0                 3           2             4    6     1       0.1169796029E-02       4    6    1         0.6229985939E-01      0.1098008923E+00
          0                 4           2             4    6     1       0.3612345322E-03       4    6    1         0.1928696759E-01      0.3078794925E-01
          0                 5           2             4    6     1       0.1114695700E-03       4    6    1         0.5953096914E-02      0.8979912104E-02
          0                 6           1             4    6     1       0.3437844208E-04       4    6    1         0.1836741846E-02      0.2675208729E-02

    ------------------------------------------------
       NWT REQUIRED            6 OUTER ITERATIONS 
       AND A TOTAL OF         11 INNER ITERATIONS.
    ------------------------------------------------

 NO OUTPUT CONTROL FOR STRESS PERIOD   38   TIME STEP    3
 
 SOLVING FOR HEAD 
                                                   Max.-Head-Change                         Max.-Flux-Residual
  Residual-Control   Outer-Iter.   Inner-Iter.     Column Row Layer    Maximum-Head-Change  Column Row Layer    Maximum-Flux-Residual          L2-NORM 
          0                 1           2             3    7     1       0.1966074153E-01       5    7    1        -0.8626833286E+00      0.2660213992E+01
          0                 2           2             4    6     1       0.3710977302E-02       4    6    1         0.1995337779E+00      0.4400867018E+00
          0                 3           2             4    6     1       0.1145134022E-02       4    6    1         0.6106019678E-01      0.1041753520E+00
          0                 4           2             4    6     1       0.3530694240E-03       4    6    1         0.1887286735E-01      0.2921746826E-01
          0                 5           1             4    6     1       0.1087913982E-03       4    6    1         0.5816357637E-02      0.8528124187E-02
          0                 6           1             4    6     1       0.3350665265E-04       4    6    1         0.1791987214E-02      0.2541831663E-02

    ------------------------------------------------
       NWT REQUIRED            6 OUTER ITERATIONS 
       AND A TOTAL OF         10 INNER ITERATIONS.
    ------------------------------------------------

 NO OUTPUT CONTROL FOR STRESS PERIOD   38   TIME STEP    4
 
 SOLVING FOR HEAD 
                                                   Max.-Head-Change                         Max.-Flux-Residual
  Residual-Control   Outer-Iter.   Inner-Iter.     Column Row Layer    Maximum-Head-Change  Column Row Layer    Maximum-Flux-Residual          L2-NORM 
          0                 1           2             3    7     1       0.1948287354E-01       5    7    1        -0.7568949459E+00      0.2573620569E+01
          0                 2           2             4    6     1       0.3633923918E-02       4    6    1         0.1956263769E+00      0.4151283724E+00
          0                 3           2             4    6     1       0.1119881994E-02       4    6    1         0.5976957009E-01      0.9767999793E-01
          0                 4           2             4    6     1       0.3448744140E-03       4    6    1         0.1845099182E-01      0.2759783594E-01
          0                 5           1             4    6     1       0.1061514512E-03       4    6    1         0.5679743415E-02      0.8102646371E-02
          0                 6           1             4    6     1       0.3266106661E-04       4    6    1         0.1748049523E-02      0.2423982256E-02

    ------------------------------------------------
       NWT REQUIRED            6 OUTER ITERATIONS 
       AND A TOTAL OF         10 INNER ITERATIONS.
    ------------------------------------------------

 NO OUTPUT CONTROL FOR STRESS PERIOD   38   TIME STEP    5
 
 SOLVING FOR HEAD 
                                                   Max.-Head-Change                         Max.-Flux-Residual
  Residual-Control   Outer-Iter.   Inner-Iter.     Column Row Layer    Maximum-Head-Change  Column Row Layer    Maximum-Flux-Residual          L2-NORM 
          0                 1           2             3    7     1       0.1929633544E-01       4    5    1         0.7131290567E+00      0.2498805709E+01
          0                 2           2             4    6     1       0.3554870858E-02       4    6    1         0.1915681881E+00      0.3934941423E+00
          0                 3           2             4    6     1       0.1094324054E-02       4    6    1         0.5845037951E-01      0.9199197103E-01
          0                 4           2             4    6     1       0.3366729497E-03       4    6    1         0.1802529984E-01      0.2617384163E-01
          0                 5           1             4    6     1       0.1035345219E-03       4    6    1         0.5543369952E-02      0.7726871042E-02
          0                 6           1             4    6     1       0.3182973127E-04       4    6    1         0.1704589981E-02      0.2319467263E-02

    ------------------------------------------------
       NWT REQUIRED            6 OUTER ITERATIONS 
       AND A TOTAL OF         10 INNER ITERATIONS.
    ------------------------------------------------

 NO OUTPUT CONTROL FOR STRESS PERIOD   38   TIME STEP    6
 
 SOLVING FOR HEAD 
                                                   Max.-Head-Change                         Max.-Flux-Residual
  Residual-Control   Outer-Iter.   Inner-Iter.     Column Row Layer    Maximum-Head-Change  Column Row Layer    Maximum-Flux-Residual          L2-NORM 
          0                 1           2             3    7     1       0.1909913051E-01       4    5    1         0.7101191461E+00      0.2429795397E+01
          0                 2           2             4    6     1       0.3463653660E-02       4    6    1         0.1872814888E+00      0.3654836514E+00
          0                 3           2             4    6     1       0.1060388503E-02       4    6    1         0.5688861687E-01      0.8178970900E-01
          0                 4           2             4    6     1       0.3240267030E-03       4    6    1         0.1744107986E-01      0.2289954308E-01
          0                 5           1             4    6     1       0.9888253236E-04       4    6    1         0.5325871529E-02      0.6682063132E-02

    ------------------------------------------------
       NWT REQUIRED            5 OUTER ITERATIONS 
       AND A TOTAL OF          9 INNER ITERATIONS.
    ------------------------------------------------

 NO OUTPUT CONTROL FOR STRESS PERIOD   38   TIME STEP    7
 
 SOLVING FOR HEAD 
                                                   Max.-Head-Change                         Max.-Flux-Residual
  Residual-Control   Outer-Iter.   Inner-Iter.     Column Row Layer    Maximum-Head-Change  Column Row Layer    Maximum-Flux-Residual          L2-NORM 
          0                 1           2             4    7     1      -0.1928090600E-01       4    7    1        -0.1050959013E+01      0.2573029268E+01
          0                 2           2             4    7     1      -0.4484700255E-02       4    7    1        -0.2432970149E+00      0.4186846266E+00
          0                 3           2             4    7     1      -0.1039658203E-02       4    7    1        -0.5669080852E-01      0.9368214733E-01
          0                 4           2             4    6     1       0.2802503678E-03       4    6    1         0.1531332194E-01      0.2454772559E-01
          0                 5           1             4    6     1       0.8414681192E-04       4    6    1         0.4583522068E-02      0.6710180371E-02

    ------------------------------------------------
       NWT REQUIRED            5 OUTER ITERATIONS 
       AND A TOTAL OF          9 INNER ITERATIONS.
    ------------------------------------------------

 NO OUTPUT CONTROL FOR STRESS PERIOD   38   TIME STEP    8
 
 SOLVING FOR HEAD 
                                                   Max.-Head-Change                         Max.-Flux-Residual
  Residual-Control   Outer-Iter.   Inner-Iter.     Column Row Layer    Maximum-Head-Change  Column Row Layer    Maximum-Flux-Residual          L2-NORM 
          0                 1           2             3    7     1       0.1809356318E-01       4    7    1        -0.9817472991E+00      0.2486433633E+01
          0                 2           2             4    7     1      -0.4190781137E-02       4    7    1        -0.2272667233E+00      0.3846403955E+00
          0                 3           2             4    7     1      -0.9721700658E-03       4    7    1        -0.5298337993E-01      0.8179146481E-01
          0                 4           2             4    6     1       0.2542959678E-03       4    6    1         0.1399416678E-01      0.2068668828E-01
          0                 5           1             4    6     1       0.7558732534E-04       4    6    1         0.4149157459E-02      0.5465819603E-02

    ------------------------------------------------
       NWT REQUIRED            5 OUTER ITERATIONS 
       AND A TOTAL OF          9 INNER ITERATIONS.
    ------------------------------------------------

 NO OUTPUT CONTROL FOR STRESS PERIOD   38   TIME STEP    9
 
 SOLVING FOR HEAD 
                                                   Max.-Head-Change                         Max.-Flux-Residual
  Residual-Control   Outer-Iter.   Inner-Iter.     Column Row Layer    Maximum-Head-Change  Column Row Layer    Maximum-Flux-Residual          L2-NORM 
          0                 1           2             5    6     1      -0.1853364694E-01       5    6    1        -0.1044502121E+01      0.2627312046E+01
          0                 2           2             5    6     1      -0.4199552254E-02       5    6    1        -0.2304416985E+00      0.4277287630E+00
          0                 3           2             5    6     1      -0.9497711024E-03       5    6    1        -0.5277607163E-01      0.9126812474E-01
          0                 4           2             5    6     1      -0.2141975057E-03       5    6    1        -0.1189054366E-01      0.2196551013E-01
          0                 5           1             4    6     1       0.5948533744E-04       4    6    1         0.3317475624E-02      0.5466114560E-02

    ------------------------------------------------
       NWT REQUIRED            5 OUTER ITERATIONS 
       AND A TOTAL OF          9 INNER ITERATIONS.
    ------------------------------------------------

 NO OUTPUT CONTROL FOR STRESS PERIOD   38   TIME STEP   10
 
 SOLVING FOR HEAD 
                                                   Max.-Head-Change                         Max.-Flux-Residual
  Residual-Control   Outer-Iter.   Inner-Iter.     Column Row Layer    Maximum-Head-Change  Column Row Layer    Maximum-Flux-Residual          L2-NORM 
          0                 1           2             3    7     1       0.1708742559E-01       5    6    1        -0.9368661616E+00      0.2518555579E+01
          0                 2           2             5    6     1      -0.3770456419E-02       5    6    1        -0.2066373247E+00      0.3994796014E+00
          0                 3           2             4    7     1      -0.8578730019E-03       5    6    1        -0.4740686993E-01      0.8392071338E-01
          0                 4           2             4    7     1      -0.1995522922E-03       4    7    1        -0.1084492311E-01      0.2010549592E-01
          0                 5           1             4    6     1       0.5200457591E-04       4    6    1         0.2903888357E-02      0.4980783002E-02

    ------------------------------------------------
       NWT REQUIRED            5 OUTER ITERATIONS 
       AND A TOTAL OF          9 INNER ITERATIONS.
    ------------------------------------------------

 NO OUTPUT CONTROL FOR STRESS PERIOD   38   TIME STEP   11
 
 SOLVING FOR HEAD 
                                                   Max.-Head-Change                         Max.-Flux-Residual
  Residual-Control   Outer-Iter.   Inner-Iter.     Column Row Layer    Maximum-Head-Change  Column Row Layer    Maximum-Flux-Residual          L2-NORM 
          0                 1           2             3    7     1       0.1662189929E-01       5    6    1        -0.8404521230E+00      0.2421926078E+01
          0                 2           2             4    7     1      -0.3453348683E-02       4    7    1        -0.1865544210E+00      0.3743598883E+00
          0                 3           2             4    7     1      -0.8062529597E-03       4    7    1        -0.4373094887E-01      0.7735133129E-01
          0                 4           2             4    7     1      -0.1878599267E-03       4    7    1        -0.1019696371E-01      0.1844768089E-01
          0                 5           1             4    6     1       0.4547728720E-04       4    6    1         0.2542777724E-02      0.4550715108E-02

    ------------------------------------------------
       NWT REQUIRED            5 OUTER ITERATIONS 
       AND A TOTAL OF          9 INNER ITERATIONS.
    ------------------------------------------------

 NO OUTPUT CONTROL FOR STRESS PERIOD   38   TIME STEP   12
 
 SOLVING FOR HEAD 
                                                   Max.-Head-Change                         Max.-Flux-Residual
  Residual-Control   Outer-Iter.   Inner-Iter.     Column Row Layer    Maximum-Head-Change  Column Row Layer    Maximum-Flux-Residual          L2-NORM 
          0                 1           2             3    6     1       0.1629672676E-01       5    6    1        -0.7539992711E+00      0.2335702283E+01
          0                 2           2             4    7     1      -0.3243811131E-02       4    7    1        -0.1750663588E+00      0.3519743070E+00
          0                 3           2             4    7     1      -0.7583591713E-03       4    7    1        -0.4109392532E-01      0.7146289077E-01
          0                 4           2             4    7     1      -0.1769739063E-03       4    7    1        -0.9595219599E-02      0.1696644236E-01
          0                 5           1             4    7     1      -0.4119245809E-04       4    7    1        -0.2238118049E-02      0.4168827206E-02

    ------------------------------------------------
       NWT REQUIRED            5 OUTER ITERATIONS 
       AND A TOTAL OF          9 INNER ITERATIONS.
    ------------------------------------------------

 NO OUTPUT CONTROL FOR STRESS PERIOD   38   TIME STEP   13
 
 SOLVING FOR HEAD 
                                                   Max.-Head-Change                         Max.-Flux-Residual
  Residual-Control   Outer-Iter.   Inner-Iter.     Column Row Layer    Maximum-Head-Change  Column Row Layer    Maximum-Flux-Residual          L2-NORM 
          0                 1           2             3    6     1       0.1614373542E-01       4    7    1        -0.7071361552E+00      0.2258420128E+01
          0                 2           2             4    7     1      -0.3049475507E-02       4    7    1        -0.1644312320E+00      0.3319786891E+00
          0                 3           2             4    7     1      -0.7138126925E-03       4    7    1        -0.3864627800E-01      0.6617059536E-01
          0                 4           2             4    7     1      -0.1668143114E-03       4    7    1        -0.9035023062E-02      0.1563931440E-01
          0                 5           1             4    7     1      -0.3889224935E-04       4    7    1        -0.2110566582E-02      0.3828871896E-02

    ------------------------------------------------
       NWT REQUIRED            5 OUTER ITERATIONS 
       AND A TOTAL OF          9 INNER ITERATIONS.
    ------------------------------------------------

 NO OUTPUT CONTROL FOR STRESS PERIOD   38   TIME STEP   14
 
 SOLVING FOR HEAD 
                                                   Max.-Head-Change                         Max.-Flux-Residual
  Residual-Control   Outer-Iter.   Inner-Iter.     Column Row Layer    Maximum-Head-Change  Column Row Layer    Maximum-Flux-Residual          L2-NORM 
          0                 1           2             3    6     1       0.1598281304E-01       4    7    1        -0.6642603221E+00      0.2188830910E+01
          0                 2           2             4    7     1      -0.2868848246E-02       4    7    1        -0.1545640873E+00      0.3140718068E+00
          0                 3           2             4    7     1      -0.6722918947E-03       4    7    1        -0.3636951596E-01      0.6140014110E-01
          0                 4           2             4    7     1      -0.1573132621E-03       4    7    1        -0.8512411564E-02      0.1444665245E-01
          0                 5           1             4    7     1      -0.3673236817E-04       4    7    1        -0.1991155726E-02      0.3525400119E-02

    ------------------------------------------------
       NWT REQUIRED            5 OUTER ITERATIONS 
       AND A TOTAL OF          9 INNER ITERATIONS.
    ------------------------------------------------

 NO OUTPUT CONTROL FOR STRESS PERIOD   38   TIME STEP   15
 
 SOLVING FOR HEAD 
                                                   Max.-Head-Change                         Max.-Flux-Residual
  Residual-Control   Outer-Iter.   Inner-Iter.     Column Row Layer    Maximum-Head-Change  Column Row Layer    Maximum-Flux-Residual          L2-NORM 
          0                 1           2             3    6     1       0.1581546681E-01       4    5    1         0.6427917948E+00      0.2125888624E+01
          0                 2           2             4    7     1      -0.2700621079E-02       4    7    1        -0.1453903470E+00      0.2979929966E+00
          0                 3           2             4    7     1      -0.6335162481E-03       4    7    1        -0.3424745876E-01      0.5708817803E-01
          0                 4           2             4    7     1      -0.1484119258E-03       4    7    1        -0.8023934045E-02      0.1337132186E-01
          0                 5           1             4    7     1      -0.3470090750E-04       4    7    1        -0.1879167592E-02      0.3254475386E-02

    ------------------------------------------------
       NWT REQUIRED            5 OUTER ITERATIONS 
       AND A TOTAL OF          9 INNER ITERATIONS.
    ------------------------------------------------

 NO OUTPUT CONTROL FOR STRESS PERIOD   38   TIME STEP   16
 
 SOLVING FOR HEAD 
                                                   Max.-Head-Change                         Max.-Flux-Residual
  Residual-Control   Outer-Iter.   Inner-Iter.     Column Row Layer    Maximum-Head-Change  Column Row Layer    Maximum-Flux-Residual          L2-NORM 
          0                 1           2             3    6     1       0.1564253138E-01       4    5    1         0.6314038310E+00      0.2068692083E+01
          0                 2           2             4    7     1      -0.2543402816E-02       4    7    1        -0.1368407883E+00      0.2834056638E+00
          0                 3           2             4    7     1      -0.5971124562E-03       4    7    1        -0.3226189196E-01      0.5312689751E-01
          0                 4           1             4    7     1      -0.1400085406E-03       4    7    1        -0.7564666647E-02      0.1238337644E-01
          0                 5           1             4    7     1      -0.3277004762E-04       4    7    1        -0.1773255842E-02      0.3005164133E-02

    ------------------------------------------------
       NWT REQUIRED            5 OUTER ITERATIONS 
       AND A TOTAL OF          8 INNER ITERATIONS.
    ------------------------------------------------

 NO OUTPUT CONTROL FOR STRESS PERIOD   38   TIME STEP   17
 
 SOLVING FOR HEAD 
                                                   Max.-Head-Change                         Max.-Flux-Residual
  Residual-Control   Outer-Iter.   Inner-Iter.     Column Row Layer    Maximum-Head-Change  Column Row Layer    Maximum-Flux-Residual          L2-NORM 
          0                 1           2             3    6     1       0.1546590422E-01       4    5    1         0.6197779742E+00      0.2016403618E+01
          0                 2           2             4    7     1      -0.2396346646E-02       4    7    1        -0.1288466680E+00      0.2703620702E+00
          0                 3           2             4    7     1      -0.5630503058E-03       4    7    1        -0.3040438937E-01      0.4957445405E-01
          0                 4           1             4    7     1      -0.1321438811E-03       4    7    1        -0.7134906037E-02      0.1150145666E-01
          0                 5           1             4    7     1      -0.3096245509E-04       4    7    1        -0.1674127506E-02      0.2785128591E-02

    ------------------------------------------------
       NWT REQUIRED            5 OUTER ITERATIONS 
       AND A TOTAL OF          8 INNER ITERATIONS.
    ------------------------------------------------

 NO OUTPUT CONTROL FOR STRESS PERIOD   38   TIME STEP   18
 
 SOLVING FOR HEAD 
                                                   Max.-Head-Change                         Max.-Flux-Residual
  Residual-Control   Outer-Iter.   Inner-Iter.     Column Row Layer    Maximum-Head-Change  Column Row Layer    Maximum-Flux-Residual          L2-NORM 
          0                 1           2             3    6     1       0.1528521500E-01       4    5    1         0.6080094901E+00      0.1968158462E+01
          0                 2           2             4    7     1      -0.2261938151E-02       4    7    1        -0.1213841333E+00      0.2564880410E+00
          0                 3           2             4    7     1      -0.5336727608E-03       4    7    1        -0.2872225102E-01      0.4505286074E-01
          0                 4           1             4    7     1      -0.1260731160E-03       4    7    1        -0.6772257510E-02      0.1018288270E-01
          0                 5           1             4    7     1      -0.2981961119E-04       4    7    1        -0.1600701796E-02      0.2402015711E-02

    ------------------------------------------------
       NWT REQUIRED            5 OUTER ITERATIONS 
       AND A TOTAL OF          8 INNER ITERATIONS.
    ------------------------------------------------

 NO OUTPUT CONTROL FOR STRESS PERIOD   38   TIME STEP   19
 
 SOLVING FOR HEAD 
                                                   Max.-Head-Change                         Max.-Flux-Residual
  Residual-Control   Outer-Iter.   Inner-Iter.     Column Row Layer    Maximum-Head-Change  Column Row Layer    Maximum-Flux-Residual          L2-NORM 
          0                 1           2             4    6     1      -0.2337069553E-01       4    6    1        -0.1274306620E+01      0.2303304569E+01
          0                 2           2             4    6     1      -0.5487494425E-02       4    6    1        -0.2948648364E+00      0.3860127311E+00
          0                 3           2             4    7     1      -0.5633422209E-03       4    7    1        -0.3018265655E-01      0.4550401401E-01
          0                 4           1             4    7     1      -0.1333992986E-03       4    7    1        -0.7162283543E-02      0.1034515420E-01
          0                 5           1             4    7     1      -0.3160377695E-04       4    7    1        -0.1694222134E-02      0.2448813790E-02

    ------------------------------------------------
       NWT REQUIRED            5 OUTER ITERATIONS 
       AND A TOTAL OF          8 INNER ITERATIONS.
    ------------------------------------------------

 NO OUTPUT CONTROL FOR STRESS PERIOD   38   TIME STEP   20
 
 SOLVING FOR HEAD 
                                                   Max.-Head-Change                         Max.-Flux-Residual
  Residual-Control   Outer-Iter.   Inner-Iter.     Column Row Layer    Maximum-Head-Change  Column Row Layer    Maximum-Flux-Residual          L2-NORM 
          0                 1           2             4    6     1      -0.2320006357E-01       4    6    1        -0.1264521820E+01      0.2265399907E+01
          0                 2           2             4    6     1      -0.4923789038E-02       4    6    1        -0.2642636886E+00      0.3595166123E+00
          0                 3           2             4    7     1      -0.5485771974E-03       4    7    1        -0.2984586115E-01      0.5137033503E-01
          0                 4           1             4    7     1      -0.1298511388E-03       4    7    1        -0.6940106028E-02      0.1007205194E-01
          0                 5           1             4    7     1      -0.3075123019E-04       4    7    1        -0.1650477800E-02      0.2357179618E-02

    ------------------------------------------------
       NWT REQUIRED            5 OUTER ITERATIONS 
       AND A TOTAL OF          8 INNER ITERATIONS.
    ------------------------------------------------

 NO OUTPUT CONTROL FOR STRESS PERIOD   38   TIME STEP   21
 
 SOLVING FOR HEAD 
                                                   Max.-Head-Change                         Max.-Flux-Residual
  Residual-Control   Outer-Iter.   Inner-Iter.     Column Row Layer    Maximum-Head-Change  Column Row Layer    Maximum-Flux-Residual          L2-NORM 
          0                 1           2             4    6     1      -0.2268140915E-01       4    6    1        -0.1235830132E+01      0.2218575302E+01
          0                 2           2             4    6     1      -0.4176470836E-02       4    6    1        -0.2236586977E+00      0.3269468489E+00
          0                 3           2             4    7     1      -0.5406969504E-03       4    7    1        -0.2937755506E-01      0.4829044938E-01
          0                 4           1             4    7     1      -0.1279074485E-03       4    7    1        -0.6842794404E-02      0.9753297652E-02
          0                 5           1             4    7     1      -0.3027303901E-04       4    7    1        -0.1625332444E-02      0.2290524014E-02

    ------------------------------------------------
       NWT REQUIRED            5 OUTER ITERATIONS 
       AND A TOTAL OF          8 INNER ITERATIONS.
    ------------------------------------------------

 NO OUTPUT CONTROL FOR STRESS PERIOD   38   TIME STEP   22
 
 SOLVING FOR HEAD 
                                                   Max.-Head-Change                         Max.-Flux-Residual
  Residual-Control   Outer-Iter.   Inner-Iter.     Column Row Layer    Maximum-Head-Change  Column Row Layer    Maximum-Flux-Residual          L2-NORM 
          0                 1           2             4    6     1      -0.2183149475E-01       4    6    1        -0.1189139885E+01      0.2163283899E+01
          0                 2           2             4    6     1      -0.3859573628E-02       4    6    1        -0.2065106562E+00      0.3115511040E+00
          0                 3           2             4    7     1      -0.5328782693E-03       4    7    1        -0.2894459118E-01      0.4649519423E-01
          0                 4           1             4    7     1      -0.1259854689E-03       4    7    1        -0.6744057035E-02      0.9478368870E-02
          0                 5           1             4    7     1      -0.2980161295E-04       4    7    1        -0.1600584368E-02      0.2228099357E-02

    ------------------------------------------------
       NWT REQUIRED            5 OUTER ITERATIONS 
       AND A TOTAL OF          8 INNER ITERATIONS.
    ------------------------------------------------

 NO OUTPUT CONTROL FOR STRESS PERIOD   38   TIME STEP   23
 
 SOLVING FOR HEAD 
                                                   Max.-Head-Change                         Max.-Flux-Residual
  Residual-Control   Outer-Iter.   Inner-Iter.     Column Row Layer    Maximum-Head-Change  Column Row Layer    Maximum-Flux-Residual          L2-NORM 
          0                 1           2             4    6     1      -0.2066632206E-01       4    6    1        -0.1125318149E+01      0.2100316689E+01
          0                 2           2             4    6     1      -0.3951606690E-02       4    6    1        -0.2116476038E+00      0.3112008116E+00
          0                 3           2             4    7     1      -0.5252081951E-03       4    7    1        -0.2855018344E-01      0.4580610440E-01
          0                 4           1             4    7     1      -0.1241045403E-03       4    7    1        -0.6645095248E-02      0.9241797551E-02
          0                 5           1             4    7     1      -0.2934124819E-04       4    7    1        -0.1576469753E-02      0.2169744530E-02

    ------------------------------------------------
       NWT REQUIRED            5 OUTER ITERATIONS 
       AND A TOTAL OF          8 INNER ITERATIONS.
    ------------------------------------------------

 NO OUTPUT CONTROL FOR STRESS PERIOD   38   TIME STEP   24
 
 SOLVING FOR HEAD 
                                                   Max.-Head-Change                         Max.-Flux-Residual
  Residual-Control   Outer-Iter.   Inner-Iter.     Column Row Layer    Maximum-Head-Change  Column Row Layer    Maximum-Flux-Residual          L2-NORM 
          0                 1           2             4    6     1      -0.1920060960E-01       4    6    1        -0.1045162669E+01      0.2030797556E+01
          0                 2           2             4    6     1      -0.4432373463E-02       4    6    1        -0.2379683689E+00      0.3261860117E+00
          0                 3           2             4    7     1      -0.5177547537E-03       4    7    1        -0.2819658062E-01      0.4627931589E-01
          0                 4           1             4    7     1      -0.1222797844E-03       4    7    1        -0.6546866424E-02      0.9045418291E-02
          0                 5           1             4    7     1      -0.2889530445E-04       4    7    1        -0.1553172600E-02      0.2115346110E-02

    ------------------------------------------------
       NWT REQUIRED            5 OUTER ITERATIONS 
       AND A TOTAL OF          8 INNER ITERATIONS.
    ------------------------------------------------

 NO OUTPUT CONTROL FOR STRESS PERIOD   38   TIME STEP   25
 
 SOLVING FOR HEAD 
                                                   Max.-Head-Change                         Max.-Flux-Residual
  Residual-Control   Outer-Iter.   Inner-Iter.     Column Row Layer    Maximum-Head-Change  Column Row Layer    Maximum-Flux-Residual          L2-NORM 
          0                 1           2             4    6     1      -0.1744869606E-01       4    6    1        -0.9494508562E+00      0.1956237372E+01
          0                 2           2             4    6     1      -0.4106681902E-02       4    6    1        -0.2203423646E+00      0.3100281779E+00
          0                 3           2             4    6     1      -0.7817474833E-03       4    6    1        -0.4203457091E-01      0.5699839349E-01
          0                 4           1             4    7     1      -0.1234894725E-03       4    7    1        -0.6699485916E-02      0.9900185457E-02
          0                 5           1             4    7     1      -0.2915502013E-04       4    7    1        -0.1563025846E-02      0.2123223070E-02

    ------------------------------------------------
       NWT REQUIRED            5 OUTER ITERATIONS 
       AND A TOTAL OF          8 INNER ITERATIONS.
    ------------------------------------------------

 NO OUTPUT CONTROL FOR STRESS PERIOD   38   TIME STEP   26
 
 SOLVING FOR HEAD 
                                                   Max.-Head-Change                         Max.-Flux-Residual
  Residual-Control   Outer-Iter.   Inner-Iter.     Column Row Layer    Maximum-Head-Change  Column Row Layer    Maximum-Flux-Residual          L2-NORM 
          0                 1           2             4    6     1      -0.1542385173E-01       4    6    1        -0.8389024562E+00      0.1878601911E+01
          0                 2           2             4    6     1      -0.3635888177E-02       4    6    1        -0.1948092622E+00      0.2887821920E+00
          0                 3           2             4    6     1      -0.8576745307E-03       4    6    1        -0.4619009060E-01      0.5934864814E-01
          0                 4           2             4    6     1      -0.2024521083E-03       4    6    1        -0.1088130246E-01      0.1392939127E-01
          0                 5           1             4    6     1      -0.4781918182E-04       4    6    1        -0.2569530126E-02      0.3331625753E-02

    ------------------------------------------------
       NWT REQUIRED            5 OUTER ITERATIONS 
       AND A TOTAL OF          9 INNER ITERATIONS.
    ------------------------------------------------

 NO OUTPUT CONTROL FOR STRESS PERIOD   38   TIME STEP   27
 
 SOLVING FOR HEAD 
                                                   Max.-Head-Change                         Max.-Flux-Residual
  Residual-Control   Outer-Iter.   Inner-Iter.     Column Row Layer    Maximum-Head-Change  Column Row Layer    Maximum-Flux-Residual          L2-NORM 
          0                 1           2             4    6     1      -0.1408564429E-01       4    6    1        -0.7658462011E+00      0.1821331032E+01
          0                 2           2             4    6     1      -0.3324028063E-02       4    6    1        -0.1779341689E+00      0.2740058226E+00
          0                 3           2             4    6     1      -0.7849366217E-03       4    6    1        -0.4224388594E-01      0.5555679476E-01
          0                 4           2             4    6     1      -0.1854726521E-03       4    6    1        -0.9961491782E-02      0.1302558208E-01
          0                 5           1             4    6     1      -0.4385235552E-04       4    6    1        -0.2354739582E-02      0.3117708166E-02

    ------------------------------------------------
       NWT REQUIRED            5 OUTER ITERATIONS 
       AND A TOTAL OF          9 INNER ITERATIONS.
    ------------------------------------------------

 NO OUTPUT CONTROL FOR STRESS PERIOD   38   TIME STEP   28
 
 SOLVING FOR HEAD 
                                                   Max.-Head-Change                         Max.-Flux-Residual
  Residual-Control   Outer-Iter.   Inner-Iter.     Column Row Layer    Maximum-Head-Change  Column Row Layer    Maximum-Flux-Residual          L2-NORM 
          0                 1           2             4    6     1      -0.1325800905E-01       4    6    1        -0.7206700996E+00      0.1777794136E+01
          0                 2           2             4    6     1      -0.3130366100E-02       4    6    1        -0.1674968497E+00      0.2637139288E+00
          0                 3           2             4    6     1      -0.7395839839E-03       4    6    1        -0.3978950205E-01      0.5295539247E-01
          0                 4           2             4    6     1      -0.1748432311E-03       4    6    1        -0.9387322987E-02      0.1240334753E-01
          0                 5           1             4    6     1      -0.4135914622E-04       4    6    1        -0.2220115342E-02      0.2969618962E-02

    ------------------------------------------------
       NWT REQUIRED            5 OUTER ITERATIONS 
       AND A TOTAL OF          9 INNER ITERATIONS.
    ------------------------------------------------

 NO OUTPUT CONTROL FOR STRESS PERIOD   38   TIME STEP   29
 
 SOLVING FOR HEAD 
                                                   Max.-Head-Change                         Max.-Flux-Residual
  Residual-Control   Outer-Iter.   Inner-Iter.     Column Row Layer    Maximum-Head-Change  Column Row Layer    Maximum-Flux-Residual          L2-NORM 
          0                 1           2             4    6     1      -0.1248373430E-01       4    6    1        -0.6784324978E+00      0.1736911948E+01
          0                 2           2             4    6     1      -0.2949051676E-02       4    6    1        -0.1577298858E+00      0.2540282925E+00
          0                 3           2             4    6     1      -0.6970911067E-03       4    6    1        -0.3749110660E-01      0.5049024860E-01
          0                 4           2             4    6     1      -0.1648767423E-03       4    6    1        -0.8849238083E-02      0.1181253344E-01
          0                 5           1             4    6     1      -0.3901975034E-04       4    6    1        -0.2093859752E-02      0.2828863519E-02

    ------------------------------------------------
       NWT REQUIRED            5 OUTER ITERATIONS 
       AND A TOTAL OF          9 INNER ITERATIONS.
    ------------------------------------------------

 NO OUTPUT CONTROL FOR STRESS PERIOD   38   TIME STEP   30



 STREAM LISTING     PERIOD     38   STEP       30

 LAYER ROW COL. STREAM  RCH.  FLOW INTO     FLOW TO   FLOW OUT OF   OVRLND.     DIRECT     STREAM       STREAM     STREAM     STREAM   STREAMBED  STREAMBED
                SEG.NO.  NO.  STRM. RCH.    AQUIFER    STRM. RCH.    RUNOFF     PRECIP       ET          HEAD       DEPTH      WIDTH   CONDCTNC.   GRADIENT

   1    1    1     1     1    7.1248E+00  1.2038E-01   7.0044E+00  0.000E+00  0.000E+00  0.000E+00  1.09385E+03  8.024E-01  7.035E+00  3.166E-02  1.267E+00
   1    2    2     1     2    7.0044E+00  1.8491E-01   6.8195E+00  0.000E+00  0.000E+00  0.000E+00  1.08886E+03  7.976E-01  6.956E+00  4.869E-02  1.266E+00
   1    3    3     1     3    6.8195E+00  1.5635E-01   6.6631E+00  0.000E+00  0.000E+00  0.000E+00  1.08321E+03  7.928E-01  6.870E+00  4.122E-02  1.264E+00
   1    3    4     1     4    6.6631E+00  1.4286E-01   6.5203E+00  0.000E+00  0.000E+00  0.000E+00  1.07820E+03  7.886E-01  6.794E+00  3.771E-02  1.263E+00
   1    4    5     2     1    4.5203E+00  2.6715E-01   4.2531E+00  0.000E+00  0.000E+00  0.000E+00  1.07236E+03  4.250E-01  1.200E+01  7.800E-02  1.142E+00
   1    5    6     2     2    4.2531E+00  2.0467E-01   4.0485E+00  0.000E+00  0.000E+00  0.000E+00  1.06692E+03  4.112E-01  1.200E+01  6.000E-02  1.137E+00
   1    6    6     2     3    4.0485E+00  2.0393E-01   3.8445E+00  0.000E+00  0.000E+00  0.000E+00  1.06219E+03  3.989E-01  1.200E+01  6.000E-02  1.133E+00
   1    7    6     2     4    3.8445E+00  2.0319E-01   3.6413E+00  0.000E+00  0.000E+00  0.000E+00  1.05746E+03  3.864E-01  1.200E+01  6.000E-02  1.129E+00
   1    8    6     2     5    3.6413E+00  2.0242E-01   3.4389E+00  0.000E+00  0.000E+00  0.000E+00  1.05273E+03  3.737E-01  1.200E+01  6.000E-02  1.125E+00
   1    3    5     3     1    2.0000E+00  2.8252E-01   1.7175E+00  0.000E+00  0.000E+00  0.000E+00  1.07555E+03  1.909E+00  9.636E+00  7.227E-02  1.955E+00
   1    3    6     3     2    1.7175E+00  2.4905E-01   1.4684E+00  0.000E+00  0.000E+00  0.000E+00  1.07264E+03  1.727E+00  8.909E+00  6.682E-02  1.864E+00
   1    3    7     3     3    1.4684E+00  1.9718E-01   1.2712E+00  0.000E+00  0.000E+00  0.000E+00  1.06987E+03  1.555E+00  8.218E+00  5.547E-02  1.777E+00
   1    4    8     3     4    1.2712E+00  2.2567E-01   1.0456E+00  0.000E+00  0.000E+00  0.000E+00  1.06682E+03  1.364E+00  7.455E+00  6.709E-02  1.682E+00
   1    5    8     3     5    1.0456E+00  1.5790E-01   8.8768E-01  0.000E+00  0.000E+00  0.000E+00  1.06362E+03  1.164E+00  6.655E+00  4.991E-02  1.582E+00
   1    6    8     3     6    8.8768E-01  5.5980E-02   8.3170E-01  0.000E+00  0.000E+00  0.000E+00  1.06158E+03  1.036E+00  6.145E+00  1.844E-02  1.518E+00
   1    5   10     4     1    1.0000E+01  9.0919E-02   9.9091E+00  0.000E+00  0.000E+00  0.000E+00  1.07836E+03  6.368E-01  1.000E+01  2.500E-02  1.212E+00
   1    5    9     4     2    9.9091E+00  1.8158E-01   9.7275E+00  0.000E+00  0.000E+00  0.000E+00  1.07154E+03  6.315E-01  1.000E+01  5.000E-02  1.211E+00
   1    6    8     4     3    9.7275E+00  1.2689E-01   9.6006E+00  0.000E+00  0.000E+00  0.000E+00  1.06381E+03  6.256E-01  1.000E+01  3.500E-02  1.209E+00
   1    6    8     5     1    1.0432E+01  2.2686E-01   1.0205E+01  0.000E+00  0.000E+00  0.000E+00  1.05868E+03  6.790E-01  1.542E+01  6.166E-02  1.226E+00
   1    7    7     5     2    1.0205E+01  2.7894E-01   9.9265E+00  0.000E+00  0.000E+00  0.000E+00  1.05417E+03  6.732E-01  1.519E+01  7.594E-02  1.224E+00
   1    8    7     5     3    9.9265E+00  1.9221E-01   9.7343E+00  0.000E+00  0.000E+00  0.000E+00  1.04992E+03  6.676E-01  1.497E+01  5.241E-02  1.223E+00
   1    8    6     5     4    9.7343E+00  1.3577E-01   9.5985E+00  0.000E+00  0.000E+00  0.000E+00  1.04691E+03  6.637E-01  1.482E+01  3.706E-02  1.221E+00
   1    9    6     6     1    1.3037E+01  2.2931E-01   1.2808E+01  0.000E+00  0.000E+00  0.000E+00  1.04355E+03  8.218E-01  1.200E+01  6.000E-02  1.274E+00
   1   10    7     6     2    1.2808E+01  2.2878E-01   1.2579E+01  0.000E+00  0.000E+00  0.000E+00  1.03899E+03  8.131E-01  1.200E+01  6.000E-02  1.271E+00
   1   11    7     6     3    1.2579E+01  2.2825E-01   1.2351E+01  0.000E+00  0.000E+00  0.000E+00  1.03444E+03  8.042E-01  1.200E+01  6.000E-02  1.268E+00
   1   12    7     6     4    1.2351E+01  2.2772E-01   1.2123E+01  0.000E+00  0.000E+00  0.000E+00  1.02989E+03  7.954E-01  1.200E+01  6.000E-02  1.265E+00
   1   13    7     6     5    1.2123E+01  6.0674E-03   1.2117E+01  0.000E+00  0.000E+00  0.000E+00  1.02670E+03  7.908E-01  1.200E+01  2.400E-02  8.427E-02
   1   14    9     7     1    1.5000E+02  1.4071E+00   1.4859E+02  0.000E+00  0.000E+00  0.000E+00  1.03987E+03  2.288E+00  5.529E+01  5.593E-01  8.386E-01
   1   13    8     7     2    1.4859E+02  2.0434E+00   1.4655E+02  0.000E+00  0.000E+00  0.000E+00  1.03478E+03  2.278E+00  5.525E+01  6.147E-01  1.108E+00
   1   13    7     7     3    1.4655E+02  1.8092E+00   1.4474E+02  0.000E+00  0.000E+00  0.000E+00  1.02969E+03  2.268E+00  5.521E+01  5.583E-01  1.080E+00
   1   13    6     8     1    1.5686E+02  1.1734E+00   1.5568E+02  0.000E+00  0.000E+00  0.000E+00  1.02474E+03  2.860E+00  4.148E+01  4.227E-01  9.254E-01
   1   13    5     8     2    1.5568E+02  4.1525E-01   1.5527E+02  0.000E+00  0.000E+00  0.000E+00  1.01848E+03  2.855E+00  4.140E+01  4.219E-01  3.281E-01
   1   13    4     8     3    1.5527E+02 -1.6124E+00   1.5688E+02  0.000E+00  0.000E+00  0.000E+00  1.01223E+03  2.859E+00  4.146E+01  4.225E+00 -1.272E-01
   1   13    3     8     4    1.5688E+02 -3.2315E+00   1.6011E+02  0.000E+00  0.000E+00  0.000E+00  1.00600E+03  2.876E+00  4.170E+01  4.249E+00 -2.535E-01
   1   13    2     8     5    1.6011E+02 -2.4748E+00   1.6259E+02  0.000E+00  0.000E+00  0.000E+00  9.99770E+02  2.895E+00  4.198E+01  4.278E+00 -1.929E-01
   1   13    1     8     6    1.6259E+02 -1.9562E+00   1.6454E+02  0.000E+00  0.000E+00  0.000E+00  9.94785E+02  2.910E+00  4.219E+01  2.580E+00 -2.528E-01
   1    8    6     9     1    0.0000E+00  0.0000E+00   0.0000E+00  0.000E+00  0.000E+00  0.000E+00  1.07875E+03  0.000E+00  4.000E+00  0.000E+00  1.000E+00
   1    8    5     9     2    0.0000E+00  0.0000E+00   0.0000E+00  0.000E+00  0.000E+00  0.000E+00  1.07825E+03  0.000E+00  4.000E+00  0.000E+00  1.000E+00





UNSATURATED ZONE PACKAGE VOLUMETRIC BUDGET FOR  TIME STEP    30 STRESS PERIOD   38
  ------------------------------------------------------------------------------



     CUMULATIVE VOLUMES      L**3       RATES FOR THIS TIME STEP      L**3/T
     ------------------                 ------------------------

           IN:                                      IN:
           ---                                      ---
        INFILTRATION =  6218264823.4744          INFILTRATION =           0.8475

          OUT:                                     OUT:
          ----                                     ----
              UZF ET =  1289785614.7107                UZF ET =           0.7500
        UZF RECHARGE =  4515770754.8019          UZF RECHARGE =           1.9848

            IN - OUT =   412708453.9618              IN - OUT =          -1.8873

          STORAGE:                                 STORAGE:
          --------                                 --------
      STORAGE CHANGE =   412744241.0543        STORAGE CHANGE =          -1.8873

 PERCENT DISCREPANCY IS DIFFERENCE BETWEEN IN-OUT MINUS CHANGE IN STORAGE
 DIVIDED BY THE AVERAGE OF IN AND OUT TIMES 100

 PERCENT DISCREPANCY =          -0.00     PERCENT DISCREPANCY =           0.00






1
  VOLUMETRIC BUDGET FOR AGRICULTURAL FIELDS AT  END OF TIME STEP   30, STRESS PERIOD  38
  ------------------------------------------------------------------------------

     CUMULATIVE VOLUMES      L**3       RATES FOR THIS TIME STEP      L**3/T
     ------------------                 ------------------------

           IN:                                      IN:
           ---                                      ---
               AG WELLS  =  5348740096.0000                 AG WELLS  =           0.0000
      DIVERSION SEGMENTS =   786998656.0000        DIVERSION SEGMENTS =           0.0000
           GW IRRIGATION =           0.0000             GW IRRIGATION =           0.0000
           SW IRRIGATION =           0.0000             SW IRRIGATION =           0.0000
        SYSTEM LOSSES GW =           0.0000          SYSTEM LOSSES GW =           0.0000
        SYSTEM LOSSES SW =           0.0000          SYSTEM LOSSES SW =           0.0000

                TOTAL IN =  6135738880.0000                  TOTAL IN =           0.0000

          OUT:                                     OUT:
          ----                                     ----
               AG WELLS  =           0.0000                 AG WELLS  =           0.0000
      DIVERSION SEGMENTS =           0.0000        DIVERSION SEGMENTS =           0.0000
           GW IRRIGATION =  5348740096.0000             GW IRRIGATION =           0.0000
           SW IRRIGATION =   787013952.0000             SW IRRIGATION =           0.0000
        SYSTEM LOSSES GW =           0.0000          SYSTEM LOSSES GW =           0.0000
        SYSTEM LOSSES SW =           0.0000          SYSTEM LOSSES SW =           0.0000

               TOTAL OUT =  6135754240.0000                 TOTAL OUT =           0.0000

                IN - OUT =      -15360.0000                  IN - OUT =           0.0000

     PERCENT DISCREPANCY =          -0.00         PERCENT DISCREPANCY =           0.00



1
  VOLUMETRIC BUDGET FOR ENTIRE MODEL AT END OF TIME STEP   30, STRESS PERIOD  38
  ------------------------------------------------------------------------------

     CUMULATIVE VOLUMES      L**3       RATES FOR THIS TIME STEP      L**3/T
     ------------------                 ------------------------

           IN:                                      IN:
           ---                                      ---
             STORAGE     =  5295103488.0000               STORAGE     =           3.9258
       CONSTANT HEAD     =           0.0000         CONSTANT HEAD     =           0.0000
     HEAD DEP BOUNDS     =    28142782.0000       HEAD DEP BOUNDS     =           0.2906
      STREAM LEAKAGE     =  1173762432.0000        STREAM LEAKAGE     =          11.8558
        UZF RECHARGE     =  4515769856.0000          UZF RECHARGE     =           1.9848
               GW ET     =           0.0000                 GW ET     =           0.0000
     SURFACE LEAKAGE     =           0.0000       SURFACE LEAKAGE     =           0.0000
           AG WELLS      =           0.0000             AG WELLS      =           0.0000

                TOTAL IN = 11012777984.0000                  TOTAL IN =          18.0570

          OUT:                                     OUT:
          ----                                     ----
             STORAGE     =  4691545088.0000               STORAGE     =           8.4969
       CONSTANT HEAD     =           0.0000         CONSTANT HEAD     =           0.0000
     HEAD DEP BOUNDS     =    27977194.0000       HEAD DEP BOUNDS     =           0.2866
      STREAM LEAKAGE     =   944395328.0000        STREAM LEAKAGE     =           9.2748
        UZF RECHARGE     =           0.0000          UZF RECHARGE     =           0.0000
               GW ET     =           0.0000                 GW ET     =           0.0000
     SURFACE LEAKAGE     =           0.0000       SURFACE LEAKAGE     =           0.0000
           AG WELLS      =  5348740096.0000             AG WELLS      =           0.0000

               TOTAL OUT = 11012657152.0000                 TOTAL OUT =          18.0584

                IN - OUT =      120832.0000                  IN - OUT =      -1.3962E-03

     PERCENT DISCREPANCY =           0.00         PERCENT DISCREPANCY =          -0.01






         TIME SUMMARY AT END OF TIME STEP   30 IN STRESS PERIOD   38
                    SECONDS     MINUTES      HOURS       DAYS        YEARS
                    -----------------------------------------------------------
   TIME STEP LENGTH  87667.      1461.1      24.352      1.0147     2.77799E-03
 STRESS PERIOD TIME 2.63000E+06  43833.      730.56      30.440     8.33397E-02
         TOTAL TIME 9.73959E+07 1.62326E+06  27054.      1127.3      3.0863    
1
1
                            STRESS PERIOD NO.   39, LENGTH =   2630000.    
                            -----------------------------------------------

                              NUMBER OF TIME STEPS =    30

                               MULTIPLIER FOR DELT =     1.000

                            INITIAL TIME STEP SIZE =   87666.66    

 REUSING NON-PARAMETER GHB CELLS FROM LAST STRESS PERIOD

      2 GHB CELLS

 REUSING STREAM SEGMENT DATA FROM LAST STRESS PERIOD



            AREAL INFILTRATION RATE
 READING ON UNIT   19 WITH FORMAT: (FREE)              

            1           2           3           4           5           6           7           8           9          10
 ........................................................................................................................
   1   1.0000E-10  2.0000E-10   0.000       0.000       0.000       0.000       0.000       0.000       0.000       0.000    
   2   2.0000E-10  1.0000E-10  2.0000E-10   0.000       0.000      8.0000E-10  8.0000E-10  5.0000E-10   0.000       0.000    
   3    0.000      5.0000E-10  1.0000E-10  1.0000E-10  8.0000E-10  8.0000E-10  5.0000E-10  5.0000E-10   0.000       0.000    
   4   8.0000E-10  5.0000E-10  1.0000E-10  1.0000E-10  1.0000E-10  1.0000E-10  1.0000E-10  1.0000E-10  2.0000E-10   0.000    
   5   8.0000E-10  5.0000E-10  1.0000E-10  1.0000E-10  1.0000E-10  1.0000E-10  1.0000E-10  1.0000E-10  1.0000E-10  1.0000E-10
   6   8.0000E-10  5.0000E-10  5.0000E-10  2.0000E-10  2.0000E-10  1.0000E-10  1.0000E-10  1.0000E-10  1.0000E-10  5.0000E-10
   7   8.0000E-10  5.0000E-10  5.0000E-10  2.0000E-10  2.0000E-10  1.0000E-10  1.0000E-10  2.0000E-10  2.0000E-10   0.000    
   8    0.000      5.0000E-10  5.0000E-10  2.0000E-10  2.0000E-10  1.0000E-10  1.0000E-10  2.0000E-10  5.0000E-10   0.000    
   9    0.000      5.0000E-10  5.0000E-10  2.0000E-10  2.0000E-10  1.0000E-10  1.0000E-10  2.0000E-10  5.0000E-10   0.000    
  10    0.000      5.0000E-10  5.0000E-10  2.0000E-10  2.0000E-10  1.0000E-10  1.0000E-10  2.0000E-10  5.0000E-10  8.0000E-10
  11    0.000      1.0000E-10  1.0000E-10  1.0000E-10  1.0000E-10  1.0000E-10  1.0000E-10  2.0000E-10  5.0000E-10   0.000    
  12   1.0000E-10  1.0000E-10  1.0000E-10  1.0000E-10  1.0000E-10  1.0000E-10  1.0000E-10  1.0000E-10  2.0000E-10   0.000    
  13   1.0000E-10  1.0000E-10  2.0000E-10  2.0000E-10  2.0000E-10  2.0000E-10  2.0000E-10  1.0000E-10  1.0000E-10   0.000    
  14    0.000      2.0000E-10  5.0000E-10  5.0000E-10  5.0000E-10  5.0000E-10  5.0000E-10  2.0000E-10  1.0000E-10   0.000    
  15    0.000       0.000      8.0000E-10  8.0000E-10  8.0000E-10  8.0000E-10   0.000       0.000       0.000       0.000    

                  ET RATE =  5.000000E-10

 USING ET EXTINCTION DEPTH FROM PREVIOUS STRESS PERIOD. CURRENT PERIOD IS:      39

 USING EXTINCTION WATER CONTENT FROM PREVIOUS STRESS PERIOD. CURRENT PERIOD IS:      39

 USING AIR ENTRY PRESSURE FROM PREVIOUS STRESS PERIOD. CURRENT PERIOD IS:      39

 USING ROOT PRESSURE HEAD FROM PREVIOUS STRESS PERIOD. CURRENT PERIOD IS:      39

 USING ROOT ACTIVITY FROM PREVIOUS STRESS PERIOD. CURRENT PERIOD IS:      39

 PROCESSING AG STRESS PERIOD DATA

 READING AG STRESS PERIOD DATA

 READING IRRIGATION SEGMENT

 READING IRRIGATION WELL

 READING SUPPLEMENTAL WELL

 END PROCESSING AG STRESS PERIOD DATA OPTIONS
 
 SOLVING FOR HEAD 
                                                   Max.-Head-Change                         Max.-Flux-Residual
  Residual-Control   Outer-Iter.   Inner-Iter.     Column Row Layer    Maximum-Head-Change  Column Row Layer    Maximum-Flux-Residual          L2-NORM 
          0                 1           2             4    6     1      -0.1175874942E-01       4    6    1        -0.6389077875E+00      0.1698469508E+01
          0                 2           2             4    6     1      -0.2779151932E-02       4    6    1        -0.1485822823E+00      0.2449053498E+00
          0                 3           2             4    6     1      -0.6572440065E-03       4    6    1        -0.3533694937E-01      0.4815169076E-01
          0                 4           2             4    6     1      -0.1555240536E-03       4    6    1        -0.8344544910E-02      0.1125093874E-01
          0                 5           1             4    6     1      -0.3682287610E-04       4    6    1        -0.1975354406E-02      0.2694944314E-02

    ------------------------------------------------
       NWT REQUIRED            5 OUTER ITERATIONS 
       AND A TOTAL OF          9 INNER ITERATIONS.
    ------------------------------------------------

 NO OUTPUT CONTROL FOR STRESS PERIOD   39   TIME STEP    1
 
 SOLVING FOR HEAD 
                                                   Max.-Head-Change                         Max.-Flux-Residual
  Residual-Control   Outer-Iter.   Inner-Iter.     Column Row Layer    Maximum-Head-Change  Column Row Layer    Maximum-Flux-Residual          L2-NORM 
          0                 1           2             4    6     1      -0.1107948030E-01       4    6    1        -0.6018975412E+00      0.1662284191E+01
          0                 2           2             4    6     1      -0.2619848146E-02       4    6    1        -0.1400092981E+00      0.2363083334E+00
          0                 3           2             4    6     1      -0.6198549765E-03       4    6    1        -0.3331671721E-01      0.4593163127E-01
          0                 4           2             4    6     1      -0.1467420927E-03       4    6    1        -0.7870882368E-02      0.1071672084E-01
          0                 5           1             4    6     1      -0.3475863125E-04       4    6    1        -0.1864057208E-02      0.2567439322E-02

    ------------------------------------------------
       NWT REQUIRED            5 OUTER ITERATIONS 
       AND A TOTAL OF          9 INNER ITERATIONS.
    ------------------------------------------------

 NO OUTPUT CONTROL FOR STRESS PERIOD   39   TIME STEP    2
 
 SOLVING FOR HEAD 
                                                   Max.-Head-Change                         Max.-Flux-Residual
  Residual-Control   Outer-Iter.   Inner-Iter.     Column Row Layer    Maximum-Head-Change  Column Row Layer    Maximum-Flux-Residual          L2-NORM 
          0                 1           2             4    6     1      -0.1044252358E-01       4    6    1        -0.5672137186E+00      0.1629604940E+01
          0                 2           2             4    6     1      -0.2470356712E-02       4    6    1        -0.1319682391E+00      0.2282993812E+00
          0                 3           2             4    6     1      -0.5847434110E-03       4    6    1        -0.3142052579E-01      0.4382391016E-01
          0                 4           2             4    6     1      -0.1384891889E-03       4    6    1        -0.7425974918E-02      0.1020783945E-01
          0                 5           1             4    6     1      -0.3281739214E-04       4    6    1        -0.1759442916E-02      0.2445872178E-02

    ------------------------------------------------
       NWT REQUIRED            5 OUTER ITERATIONS 
       AND A TOTAL OF          9 INNER ITERATIONS.
    ------------------------------------------------

 NO OUTPUT CONTROL FOR STRESS PERIOD   39   TIME STEP    3
 
 SOLVING FOR HEAD 
                                                   Max.-Head-Change                         Max.-Flux-Residual
  Residual-Control   Outer-Iter.   Inner-Iter.     Column Row Layer    Maximum-Head-Change  Column Row Layer    Maximum-Flux-Residual          L2-NORM 
          0                 1           2             4    6     1      -0.9844631170E-02       4    6    1        -0.5346766476E+00      0.1598226417E+01
          0                 2           2             4    6     1      -0.2329931939E-02       4    6    1        -0.1244183798E+00      0.2207047515E+00
          0                 3           2             4    6     1      -0.5517379766E-03       4    6    1        -0.2963897825E-01      0.4181771631E-01
          0                 4           2             4    6     1      -0.1307259454E-03       4    6    1        -0.7007665893E-02      0.9722659832E-02
          0                 5           1             4    6     1      -0.3099008986E-04       4    6    1        -0.1661015311E-02      0.2329874575E-02

    ------------------------------------------------
       NWT REQUIRED            5 OUTER ITERATIONS 
       AND A TOTAL OF          9 INNER ITERATIONS.
    ------------------------------------------------

 NO OUTPUT CONTROL FOR STRESS PERIOD   39   TIME STEP    4
 
 SOLVING FOR HEAD 
                                                   Max.-Head-Change                         Max.-Flux-Residual
  Residual-Control   Outer-Iter.   Inner-Iter.     Column Row Layer    Maximum-Head-Change  Column Row Layer    Maximum-Flux-Residual          L2-NORM 
          0                 1           2             3    7     1       0.9451498525E-02       4    6    1        -0.5041293991E+00      0.1567821144E+01
          0                 2           2             4    6     1      -0.2197927455E-02       4    6    1        -0.1173243484E+00      0.2134748185E+00
          0                 3           2             4    6     1      -0.5206907204E-03       4    6    1        -0.2796393717E-01      0.3990700744E-01
          0                 4           2             4    6     1      -0.1234184681E-03       4    6    1        -0.6614095134E-02      0.9259951738E-02
          0                 5           1             4    6     1      -0.2926895622E-04       4    6    1        -0.1568348165E-02      0.2219169347E-02

    ------------------------------------------------
       NWT REQUIRED            5 OUTER ITERATIONS 
       AND A TOTAL OF          9 INNER ITERATIONS.
    ------------------------------------------------

 NO OUTPUT CONTROL FOR STRESS PERIOD   39   TIME STEP    5
 
 SOLVING FOR HEAD 
                                                   Max.-Head-Change                         Max.-Flux-Residual
  Residual-Control   Outer-Iter.   Inner-Iter.     Column Row Layer    Maximum-Head-Change  Column Row Layer    Maximum-Flux-Residual          L2-NORM 
          0                 1           2             3    7     1       0.9231826787E-02       4    6    1        -0.4754291855E+00      0.1539076123E+01
          0                 2           2             4    6     1      -0.2073744560E-02       4    6    1        -0.1106536194E+00      0.2066626872E+00
          0                 3           2             4    6     1      -0.4914631330E-03       4    6    1        -0.2638784127E-01      0.3808726403E-01
          0                 4           2             4    6     1      -0.1165346849E-03       4    6    1        -0.6243515551E-02      0.8818158395E-02
          0                 5           1             4    6     1      -0.2764655704E-04       4    6    1        -0.1481036682E-02      0.2113390654E-02

    ------------------------------------------------
       NWT REQUIRED            5 OUTER ITERATIONS 
       AND A TOTAL OF          9 INNER ITERATIONS.
    ------------------------------------------------

 NO OUTPUT CONTROL FOR STRESS PERIOD   39   TIME STEP    6
 
 SOLVING FOR HEAD 
                                                   Max.-Head-Change                         Max.-Flux-Residual
  Residual-Control   Outer-Iter.   Inner-Iter.     Column Row Layer    Maximum-Head-Change  Column Row Layer    Maximum-Flux-Residual          L2-NORM 
          0                 1           2             3    7     1       0.9018740249E-02       4    6    1        -0.4484447206E+00      0.1511865204E+01
          0                 2           2             4    6     1      -0.1956840123E-02       4    6    1        -0.1043765316E+00      0.2002209109E+00
          0                 3           2             4    6     1      -0.4639305441E-03       4    6    1        -0.2490384683E-01      0.3635333801E-01
          0                 4           2             4    6     1      -0.1100459559E-03       4    6    1        -0.5894358404E-02      0.8396459624E-02
          0                 5           1             4    6     1      -0.2611630914E-04       4    6    1        -0.1398720342E-02      0.2012541131E-02

    ------------------------------------------------
       NWT REQUIRED            5 OUTER ITERATIONS 
       AND A TOTAL OF          9 INNER ITERATIONS.
    ------------------------------------------------

 NO OUTPUT CONTROL FOR STRESS PERIOD   39   TIME STEP    7
 
 SOLVING FOR HEAD 
                                                   Max.-Head-Change                         Max.-Flux-Residual
  Residual-Control   Outer-Iter.   Inner-Iter.     Column Row Layer    Maximum-Head-Change  Column Row Layer    Maximum-Flux-Residual          L2-NORM 
          0                 1           2             3    7     1       0.8812335515E-02       4    6    1        -0.4230488886E+00      0.1486088599E+01
          0                 2           2             4    6     1      -0.1846683275E-02       4    6    1        -0.9846418310E-01      0.1941347545E+00
          0                 3           2             4    6     1      -0.4379704669E-03       4    6    1        -0.2350525529E-01      0.3469988983E-01
          0                 4           1             4    6     1      -0.1039240520E-03       4    6    1        -0.5565079881E-02      0.7993020887E-02
          0                 5           1             4    6     1      -0.2467162436E-04       4    6    1        -0.1321039862E-02      0.1915760913E-02

    ------------------------------------------------
       NWT REQUIRED            5 OUTER ITERATIONS 
       AND A TOTAL OF          8 INNER ITERATIONS.
    ------------------------------------------------

 NO OUTPUT CONTROL FOR STRESS PERIOD   39   TIME STEP    8
 
 SOLVING FOR HEAD 
                                                   Max.-Head-Change                         Max.-Flux-Residual
  Residual-Control   Outer-Iter.   Inner-Iter.     Column Row Layer    Maximum-Head-Change  Column Row Layer    Maximum-Flux-Residual          L2-NORM 
          0                 1           2             3    7     1       0.8612450284E-02       4    6    1        -0.3991324248E+00      0.1461640436E+01
          0                 2           2             4    6     1      -0.1742816342E-02       4    6    1        -0.9289168895E-01      0.1883834384E+00
          0                 3           2             4    6     1      -0.4134771317E-03       4    6    1        -0.2218628845E-01      0.3312278147E-01
          0                 4           1             4    6     1      -0.9814439126E-04       4    6    1        -0.5254346348E-02      0.7607212689E-02

    ------------------------------------------------
       NWT REQUIRED            4 OUTER ITERATIONS 
       AND A TOTAL OF          7 INNER ITERATIONS.
    ------------------------------------------------

 NO OUTPUT CONTROL FOR STRESS PERIOD   39   TIME STEP    9
 
 SOLVING FOR HEAD 
                                                   Max.-Head-Change                         Max.-Flux-Residual
  Residual-Control   Outer-Iter.   Inner-Iter.     Column Row Layer    Maximum-Head-Change  Column Row Layer    Maximum-Flux-Residual          L2-NORM 
          0                 1           2             3    7     1       0.8418883464E-02       4    6    1        -0.3766381102E+00      0.1438460352E+01
          0                 2           2             4    6     1      -0.1645007417E-02       4    6    1        -0.8764633675E-01      0.1829565044E+00
          0                 3           2             4    6     1      -0.3903977774E-03       4    6    1        -0.2094402983E-01      0.3162039616E-01
          0                 4           1             4    6     1      -0.9269502112E-04       4    6    1        -0.4961495734E-02      0.7238704265E-02

    ------------------------------------------------
       NWT REQUIRED            4 OUTER ITERATIONS 
       AND A TOTAL OF          7 INNER ITERATIONS.
    ------------------------------------------------

 NO OUTPUT CONTROL FOR STRESS PERIOD   39   TIME STEP   10
 
 SOLVING FOR HEAD 
                                                   Max.-Head-Change                         Max.-Flux-Residual
  Residual-Control   Outer-Iter.   Inner-Iter.     Column Row Layer    Maximum-Head-Change  Column Row Layer    Maximum-Flux-Residual          L2-NORM 
          0                 1           2             3    7     1       0.8231733118E-02       4    6    1        -0.3554106915E+00      0.1416432850E+01
          0                 2           2             4    6     1      -0.1552600007E-02       4    6    1        -0.8269248365E-01      0.1778264816E+00
          0                 3           2             4    6     1      -0.3685800841E-03       4    6    1        -0.1977018465E-01      0.3018604004E-01
          0                 4           1             4    6     1      -0.8754057267E-04       4    6    1        -0.4684604983E-02      0.6885854221E-02

    ------------------------------------------------
       NWT REQUIRED            4 OUTER ITERATIONS 
       AND A TOTAL OF          7 INNER ITERATIONS.
    ------------------------------------------------

 NO OUTPUT CONTROL FOR STRESS PERIOD   39   TIME STEP   11
 
 SOLVING FOR HEAD 
                                                   Max.-Head-Change                         Max.-Flux-Residual
  Residual-Control   Outer-Iter.   Inner-Iter.     Column Row Layer    Maximum-Head-Change  Column Row Layer    Maximum-Flux-Residual          L2-NORM 
          0                 1           2             3    5     1       0.8063294706E-02       4    6    1        -0.3353746464E+00      0.1395492282E+01
          0                 2           2             4    6     1      -0.1465277316E-02       4    6    1        -0.7801301447E-01      0.1729473453E+00
          0                 3           2             4    6     1      -0.3479505035E-03       4    6    1        -0.1866074385E-01      0.2881582216E-01
          0                 4           1             4    6     1      -0.8266396608E-04       4    6    1        -0.4422745533E-02      0.6548068262E-02

    ------------------------------------------------
       NWT REQUIRED            4 OUTER ITERATIONS 
       AND A TOTAL OF          7 INNER ITERATIONS.
    ------------------------------------------------

 NO OUTPUT CONTROL FOR STRESS PERIOD   39   TIME STEP   12
 
 SOLVING FOR HEAD 
                                                   Max.-Head-Change                         Max.-Flux-Residual
  Residual-Control   Outer-Iter.   Inner-Iter.     Column Row Layer    Maximum-Head-Change  Column Row Layer    Maximum-Flux-Residual          L2-NORM 
          0                 1           2             3    5     1       0.7966265940E-02       4    6    1        -0.3164533237E+00      0.1375591629E+01
          0                 2           2             4    6     1      -0.1382744833E-02       4    6    1        -0.7359044882E-01      0.1683998467E+00
          0                 3           2             4    6     1      -0.3284535514E-03       4    6    1        -0.1761213599E-01      0.2751509417E-01
          0                 4           1             4    6     1      -0.7805654336E-04       4    6    1        -0.4175271984E-02      0.6226955086E-02

    ------------------------------------------------
       NWT REQUIRED            4 OUTER ITERATIONS 
       AND A TOTAL OF          7 INNER ITERATIONS.
    ------------------------------------------------

 NO OUTPUT CONTROL FOR STRESS PERIOD   39   TIME STEP   13
 
 SOLVING FOR HEAD 
                                                   Max.-Head-Change                         Max.-Flux-Residual
  Residual-Control   Outer-Iter.   Inner-Iter.     Column Row Layer    Maximum-Head-Change  Column Row Layer    Maximum-Flux-Residual          L2-NORM 
          0                 1           2             3    5     1       0.7869844759E-02       5    4    1         0.3078812782E+00      0.1356678313E+01
          0                 2           2             4    6     1      -0.1304649807E-02       4    6    1        -0.6940706202E-01      0.1641032841E+00
          0                 3           2             4    6     1      -0.3099908271E-03       4    6    1        -0.1661976036E-01      0.2627282478E-01
          0                 4           1             4    6     1      -0.7368897477E-04       4    6    1        -0.3940865941E-02      0.5918115852E-02

    ------------------------------------------------
       NWT REQUIRED            4 OUTER ITERATIONS 
       AND A TOTAL OF          7 INNER ITERATIONS.
    ------------------------------------------------

 NO OUTPUT CONTROL FOR STRESS PERIOD   39   TIME STEP   14
 
 SOLVING FOR HEAD 
                                                   Max.-Head-Change                         Max.-Flux-Residual
  Residual-Control   Outer-Iter.   Inner-Iter.     Column Row Layer    Maximum-Head-Change  Column Row Layer    Maximum-Flux-Residual          L2-NORM 
          0                 1           2             3    5     1       0.7773885086E-02       5    4    1         0.3051480312E+00      0.1338763194E+01
          0                 2           2             4    6     1      -0.1230686223E-02       4    6    1        -0.6545033605E-01      0.1599859203E+00
          0                 3           2             4    6     1      -0.2924665313E-03       4    6    1        -0.1567934304E-01      0.2506064504E-01
          0                 4           1             4    6     1      -0.6953324435E-04       4    6    1        -0.3718223600E-02      0.5613811972E-02

    ------------------------------------------------
       NWT REQUIRED            4 OUTER ITERATIONS 
       AND A TOTAL OF          7 INNER ITERATIONS.
    ------------------------------------------------

 NO OUTPUT CONTROL FOR STRESS PERIOD   39   TIME STEP   15
 
 SOLVING FOR HEAD 
                                                   Max.-Head-Change                         Max.-Flux-Residual
  Residual-Control   Outer-Iter.   Inner-Iter.     Column Row Layer    Maximum-Head-Change  Column Row Layer    Maximum-Flux-Residual          L2-NORM 
          0                 1           2             3    5     1       0.7678725069E-02       5    4    1         0.3024292934E+00      0.1321625155E+01
          0                 2           2             4    6     1      -0.1160640369E-02       4    6    1        -0.6169912217E-01      0.1561677676E+00
          0                 3           2             4    6     1      -0.2758978315E-03       4    6    1        -0.1478913868E-01      0.2393542117E-01
          0                 4           1             4    6     1      -0.6561159523E-04       4    6    1        -0.3507829469E-02      0.5331801523E-02

    ------------------------------------------------
       NWT REQUIRED            4 OUTER ITERATIONS 
       AND A TOTAL OF          7 INNER ITERATIONS.
    ------------------------------------------------

 NO OUTPUT CONTROL FOR STRESS PERIOD   39   TIME STEP   16
 
 SOLVING FOR HEAD 
                                                   Max.-Head-Change                         Max.-Flux-Residual
  Residual-Control   Outer-Iter.   Inner-Iter.     Column Row Layer    Maximum-Head-Change  Column Row Layer    Maximum-Flux-Residual          L2-NORM 
          0                 1           2             3    5     1       0.7584199660E-02       5    4    1         0.2997392207E+00      0.1305264528E+01
          0                 2           2             4    6     1      -0.1094203720E-02       4    6    1        -0.5814463688E-01      0.1525261873E+00
          0                 3           2             4    6     1      -0.2601609296E-03       4    6    1        -0.1394445262E-01      0.2284771195E-01
          0                 4           1             4    6     1      -0.6188195811E-04       4    6    1        -0.3307915963E-02      0.5057873150E-02

    ------------------------------------------------
       NWT REQUIRED            4 OUTER ITERATIONS 
       AND A TOTAL OF          7 INNER ITERATIONS.
    ------------------------------------------------

 NO OUTPUT CONTROL FOR STRESS PERIOD   39   TIME STEP   17
 
 SOLVING FOR HEAD 
                                                   Max.-Head-Change                         Max.-Flux-Residual
  Residual-Control   Outer-Iter.   Inner-Iter.     Column Row Layer    Maximum-Head-Change  Column Row Layer    Maximum-Flux-Residual          L2-NORM 
          0                 1           2             3    5     1       0.7490629521E-02       5    4    1         0.2970787123E+00      0.1289635247E+01
          0                 2           2             4    6     1      -0.1031130728E-02       4    6    1        -0.5477111375E-01      0.1490885908E+00
          0                 3           2             4    6     1      -0.2452132416E-03       4    6    1        -0.1314242506E-01      0.2180930823E-01
          0                 4           1             4    6     1      -0.5833762239E-04       4    6    1        -0.3117999301E-02      0.4794992712E-02

    ------------------------------------------------
       NWT REQUIRED            4 OUTER ITERATIONS 
       AND A TOTAL OF          7 INNER ITERATIONS.
    ------------------------------------------------

 NO OUTPUT CONTROL FOR STRESS PERIOD   39   TIME STEP   18
 
 SOLVING FOR HEAD 
                                                   Max.-Head-Change                         Max.-Flux-Residual
  Residual-Control   Outer-Iter.   Inner-Iter.     Column Row Layer    Maximum-Head-Change  Column Row Layer    Maximum-Flux-Residual          L2-NORM 
          0                 1           2             3    5     1       0.7398072994E-02       7    8    1         0.2948130632E+00      0.1274697351E+01
          0                 2           2             4    6     1      -0.9712598334E-03       4    6    1        -0.5156990579E-01      0.1458448605E+00
          0                 3           2             4    6     1      -0.2310168034E-03       4    6    1        -0.1238100563E-01      0.2081831337E-01
          0                 4           1             4    7     1      -0.5498359815E-04       4    6    1        -0.2937598606E-02      0.4542670314E-02

    ------------------------------------------------
       NWT REQUIRED            4 OUTER ITERATIONS 
       AND A TOTAL OF          7 INNER ITERATIONS.
    ------------------------------------------------

 NO OUTPUT CONTROL FOR STRESS PERIOD   39   TIME STEP   19
 
 SOLVING FOR HEAD 
                                                   Max.-Head-Change                         Max.-Flux-Residual
  Residual-Control   Outer-Iter.   Inner-Iter.     Column Row Layer    Maximum-Head-Change  Column Row Layer    Maximum-Flux-Residual          L2-NORM 
          0                 1           2             3    5     1       0.7306340127E-02       7    8    1         0.2926867868E+00      0.1260410519E+01
          0                 2           2             4    7     1      -0.9174422232E-03       4    7    1        -0.4871392533E-01      0.1427808421E+00
          0                 3           2             4    7     1      -0.2193819904E-03       4    7    1        -0.1170080732E-01      0.1987310117E-01
          0                 4           1             4    7     1      -0.5247209798E-04       4    7    1        -0.2794683362E-02      0.4300529189E-02

    ------------------------------------------------
       NWT REQUIRED            4 OUTER ITERATIONS 
       AND A TOTAL OF          7 INNER ITERATIONS.
    ------------------------------------------------

 NO OUTPUT CONTROL FOR STRESS PERIOD   39   TIME STEP   20
 
 SOLVING FOR HEAD 
                                                   Max.-Head-Change                         Max.-Flux-Residual
  Residual-Control   Outer-Iter.   Inner-Iter.     Column Row Layer    Maximum-Head-Change  Column Row Layer    Maximum-Flux-Residual          L2-NORM 
          0                 1           2             3    5     1       0.7215726410E-02       7    8    1         0.2905715386E+00      0.1246738918E+01
          0                 2           2             4    7     1      -0.8757421530E-03       4    7    1        -0.4651386004E-01      0.1399007136E+00
          0                 3           2             4    7     1      -0.2092944595E-03       4    7    1        -0.1116743011E-01      0.1897197240E-01
          0                 4           1             4    7     1      -0.5003240257E-04       4    7    1        -0.2665734002E-02      0.4068007833E-02

    ------------------------------------------------
       NWT REQUIRED            4 OUTER ITERATIONS 
       AND A TOTAL OF          7 INNER ITERATIONS.
    ------------------------------------------------

 NO OUTPUT CONTROL FOR STRESS PERIOD   39   TIME STEP   21
 
 SOLVING FOR HEAD 
                                                   Max.-Head-Change                         Max.-Flux-Residual
  Residual-Control   Outer-Iter.   Inner-Iter.     Column Row Layer    Maximum-Head-Change  Column Row Layer    Maximum-Flux-Residual          L2-NORM 
          0                 1           2             3    5     1       0.7126027103E-02       7    8    1         0.2884736219E+00      0.1233647656E+01
          0                 2           2             4    7     1      -0.8352470275E-03       4    7    1        -0.4437676086E-01      0.1371830384E+00
          0                 3           2             4    7     1      -0.1995019945E-03       4    7    1        -0.1064952510E-01      0.1811403986E-01
          0                 4           1             4    7     1      -0.4766486569E-04       4    7    1        -0.2540569486E-02      0.3844987842E-02

    ------------------------------------------------
       NWT REQUIRED            4 OUTER ITERATIONS 
       AND A TOTAL OF          7 INNER ITERATIONS.
    ------------------------------------------------

 NO OUTPUT CONTROL FOR STRESS PERIOD   39   TIME STEP   22
 
 SOLVING FOR HEAD 
                                                   Max.-Head-Change                         Max.-Flux-Residual
  Residual-Control   Outer-Iter.   Inner-Iter.     Column Row Layer    Maximum-Head-Change  Column Row Layer    Maximum-Flux-Residual          L2-NORM 
          0                 1           2             3    5     1       0.7037527462E-02       7    8    1         0.2863878986E+00      0.1221112650E+01
          0                 2           2             4    7     1      -0.7959005063E-03       4    7    1        -0.4229969027E-01      0.1346238797E+00
          0                 3           2             4    7     1      -0.1899907176E-03       4    7    1        -0.1014636805E-01      0.1729765240E-01
          0                 4           1             4    7     1      -0.4536607695E-04       4    7    1        -0.2419011498E-02      0.3637300017E-02

    ------------------------------------------------
       NWT REQUIRED            4 OUTER ITERATIONS 
       AND A TOTAL OF          7 INNER ITERATIONS.
    ------------------------------------------------

 NO OUTPUT CONTROL FOR STRESS PERIOD   39   TIME STEP   23
 
 SOLVING FOR HEAD 
                                                   Max.-Head-Change                         Max.-Flux-Residual
  Residual-Control   Outer-Iter.   Inner-Iter.     Column Row Layer    Maximum-Head-Change  Column Row Layer    Maximum-Flux-Residual          L2-NORM 
          0                 1           2             3    5     1       0.6950251762E-02       7    8    1         0.2843206119E+00      0.1209100659E+01
          0                 2           2             4    7     1      -0.7576778675E-03       4    7    1        -0.4028146615E-01      0.1322150126E+00
          0                 3           2             4    7     1      -0.1807539868E-03       4    7    1        -0.9657630913E-02      0.1652162846E-01
          0                 4           1             4    7     1      -0.4313428109E-04       4    7    1        -0.2300972742E-02      0.3425754674E-02

    ------------------------------------------------
       NWT REQUIRED            4 OUTER ITERATIONS 
       AND A TOTAL OF          7 INNER ITERATIONS.
    ------------------------------------------------

 NO OUTPUT CONTROL FOR STRESS PERIOD   39   TIME STEP   24
 
 SOLVING FOR HEAD 
                                                   Max.-Head-Change                         Max.-Flux-Residual
  Residual-Control   Outer-Iter.   Inner-Iter.     Column Row Layer    Maximum-Head-Change  Column Row Layer    Maximum-Flux-Residual          L2-NORM 
          0                 1           2             3    5     1       0.6864225675E-02       7    8    1         0.2822610911E+00      0.1197577835E+01
          0                 2           2             4    7     1      -0.7205876254E-03       4    7    1        -0.3832258682E-01      0.1299493720E+00
          0                 3           2             4    7     1      -0.1717935088E-03       4    7    1        -0.9183417434E-02      0.1578553771E-01
          0                 4           1             4    7     1      -0.4096981124E-04       4    7    1        -0.2186473733E-02      0.3228983238E-02

    ------------------------------------------------
       NWT REQUIRED            4 OUTER ITERATIONS 
       AND A TOTAL OF          7 INNER ITERATIONS.
    ------------------------------------------------

 NO OUTPUT CONTROL FOR STRESS PERIOD   39   TIME STEP   25
 
 SOLVING FOR HEAD 
                                                   Max.-Head-Change                         Max.-Flux-Residual
  Residual-Control   Outer-Iter.   Inner-Iter.     Column Row Layer    Maximum-Head-Change  Column Row Layer    Maximum-Flux-Residual          L2-NORM 
          0                 1           2             3    5     1       0.6779223180E-02       7    8    1         0.2802269133E+00      0.1186524358E+01
          0                 2           2             4    7     1      -0.6846006868E-03       4    7    1        -0.3642164424E-01      0.1278198667E+00
          0                 3           2             4    7     1      -0.1631015669E-03       4    7    1        -0.8723343246E-02      0.1508828980E-01
          0                 4           1             4    7     1      -0.3887065227E-04       4    7    1        -0.2075413400E-02      0.3040585350E-02

    ------------------------------------------------
       NWT REQUIRED            4 OUTER ITERATIONS 
       AND A TOTAL OF          7 INNER ITERATIONS.
    ------------------------------------------------

 NO OUTPUT CONTROL FOR STRESS PERIOD   39   TIME STEP   26
 
 SOLVING FOR HEAD 
                                                   Max.-Head-Change                         Max.-Flux-Residual
  Residual-Control   Outer-Iter.   Inner-Iter.     Column Row Layer    Maximum-Head-Change  Column Row Layer    Maximum-Flux-Residual          L2-NORM 
          0                 1           2             3    5     1       0.6695507456E-02       7    8    1         0.2782069025E+00      0.1175912403E+01
          0                 2           2             3    5     1      -0.6514418123E-03       4    7    1        -0.3457718639E-01      0.1258197175E+00
          0                 3           2             4    7     1      -0.1546714528E-03       4    7    1        -0.8277057746E-02      0.1442936834E-01
          0                 4           1             4    7     1      -0.3683516356E-04       4    7    1        -0.1967705663E-02      0.2860369150E-02

    ------------------------------------------------
       NWT REQUIRED            4 OUTER ITERATIONS 
       AND A TOTAL OF          7 INNER ITERATIONS.
    ------------------------------------------------

 NO OUTPUT CONTROL FOR STRESS PERIOD   39   TIME STEP   27
 
 SOLVING FOR HEAD 
                                                   Max.-Head-Change                         Max.-Flux-Residual
  Residual-Control   Outer-Iter.   Inner-Iter.     Column Row Layer    Maximum-Head-Change  Column Row Layer    Maximum-Flux-Residual          L2-NORM 
          0                 1           2             3    5     1       0.6612848967E-02       7    8    1         0.2762017812E+00      0.1165726630E+01
          0                 2           2             3    5     1      -0.6433914248E-03       4    7    1        -0.3278609030E-01      0.1239420747E+00
          0                 3           2             4    7     1      -0.1464886512E-03       4    7    1        -0.7843794343E-02      0.1380768419E-01
          0                 4           1             4    7     1      -0.3485982280E-04       4    7    1        -0.1863164792E-02      0.2688058626E-02

    ------------------------------------------------
       NWT REQUIRED            4 OUTER ITERATIONS 
       AND A TOTAL OF          7 INNER ITERATIONS.
    ------------------------------------------------

 NO OUTPUT CONTROL FOR STRESS PERIOD   39   TIME STEP   28
 
 SOLVING FOR HEAD 
                                                   Max.-Head-Change                         Max.-Flux-Residual
  Residual-Control   Outer-Iter.   Inner-Iter.     Column Row Layer    Maximum-Head-Change  Column Row Layer    Maximum-Flux-Residual          L2-NORM 
          0                 1           2             3    5     1       0.6531745787E-02       7    8    1         0.2742119409E+00      0.1155934051E+01
          0                 2           2             3    5     1      -0.6354927685E-03       4    7    1        -0.3105036182E-01      0.1221807554E+00
          0                 3           2             4    7     1      -0.1385606547E-03       4    7    1        -0.7423986030E-02      0.1322301538E-01
          0                 4           1             4    7     1      -0.3294621858E-04       4    7    1        -0.1761882926E-02      0.2523644788E-02

    ------------------------------------------------
       NWT REQUIRED            4 OUTER ITERATIONS 
       AND A TOTAL OF          7 INNER ITERATIONS.
    ------------------------------------------------

 NO OUTPUT CONTROL FOR STRESS PERIOD   39   TIME STEP   29
 
 SOLVING FOR HEAD 
                                                   Max.-Head-Change                         Max.-Flux-Residual
  Residual-Control   Outer-Iter.   Inner-Iter.     Column Row Layer    Maximum-Head-Change  Column Row Layer    Maximum-Flux-Residual          L2-NORM 
          0                 1           2             3    5     1       0.6451787132E-02       5    4    1         0.2953102904E+00      0.1233427670E+01
          0                 2           2             3    5     1      -0.6277058517E-03       5    4    1        -0.2953108529E-01      0.1285224518E+00
          0                 3           2             4    7     1      -0.1308423784E-03       4    7    1        -0.7015535851E-02      0.1300648713E-01
          0                 4           1             4    7     1      -0.3108164026E-04       4    7    1        -0.1663255096E-02      0.2368441369E-02

    ------------------------------------------------
       NWT REQUIRED            4 OUTER ITERATIONS 
       AND A TOTAL OF          7 INNER ITERATIONS.
    ------------------------------------------------

 NO OUTPUT CONTROL FOR STRESS PERIOD   39   TIME STEP   30



 STREAM LISTING     PERIOD     39   STEP       30

 LAYER ROW COL. STREAM  RCH.  FLOW INTO     FLOW TO   FLOW OUT OF   OVRLND.     DIRECT     STREAM       STREAM     STREAM     STREAM   STREAMBED  STREAMBED
                SEG.NO.  NO.  STRM. RCH.    AQUIFER    STRM. RCH.    RUNOFF     PRECIP       ET          HEAD       DEPTH      WIDTH   CONDCTNC.   GRADIENT

   1    1    1     1     1    1.6375E+01  1.9673E-01   1.6178E+01  0.000E+00  0.000E+00  0.000E+00  1.09408E+03  1.036E+00  1.083E+01  4.874E-02  1.345E+00
   1    2    2     1     2    1.6178E+01  3.0333E-01   1.5875E+01  0.000E+00  0.000E+00  0.000E+00  1.08909E+03  1.032E+00  1.075E+01  7.524E-02  1.344E+00
   1    3    3     1     3    1.5875E+01  2.5739E-01   1.5618E+01  0.000E+00  0.000E+00  0.000E+00  1.08345E+03  1.026E+00  1.065E+01  6.392E-02  1.342E+00
   1    3    4     1     4    1.5618E+01  2.3595E-01   1.5382E+01  0.000E+00  0.000E+00  0.000E+00  1.07843E+03  1.022E+00  1.057E+01  5.867E-02  1.341E+00
   1    4    5     2     1    1.3382E+01  2.9830E-01   1.3084E+01  0.000E+00  0.000E+00  0.000E+00  1.07276E+03  8.244E-01  1.200E+01  7.800E-02  1.275E+00
   1    5    6     2     2    1.3084E+01  2.2887E-01   1.2855E+01  0.000E+00  0.000E+00  0.000E+00  1.06732E+03  8.145E-01  1.200E+01  6.000E-02  1.271E+00
   1    6    6     2     3    1.2855E+01  2.2835E-01   1.2626E+01  0.000E+00  0.000E+00  0.000E+00  1.06260E+03  8.059E-01  1.200E+01  6.000E-02  1.269E+00
   1    7    6     2     4    1.2626E+01  2.2783E-01   1.2398E+01  0.000E+00  0.000E+00  0.000E+00  1.05787E+03  7.972E-01  1.200E+01  6.000E-02  1.266E+00
   1    8    6     2     5    1.2398E+01  2.2731E-01   1.2171E+01  0.000E+00  0.000E+00  0.000E+00  1.05315E+03  7.884E-01  1.200E+01  6.000E-02  1.263E+00
   1    3    5     3     1    2.0000E+00  2.8252E-01   1.7175E+00  0.000E+00  0.000E+00  0.000E+00  1.07555E+03  1.909E+00  9.636E+00  7.227E-02  1.955E+00
   1    3    6     3     2    1.7175E+00  2.4905E-01   1.4684E+00  0.000E+00  0.000E+00  0.000E+00  1.07264E+03  1.727E+00  8.909E+00  6.682E-02  1.864E+00
   1    3    7     3     3    1.4684E+00  1.9718E-01   1.2712E+00  0.000E+00  0.000E+00  0.000E+00  1.06987E+03  1.555E+00  8.218E+00  5.547E-02  1.777E+00
   1    4    8     3     4    1.2712E+00  2.2567E-01   1.0456E+00  0.000E+00  0.000E+00  0.000E+00  1.06682E+03  1.364E+00  7.455E+00  6.709E-02  1.682E+00
   1    5    8     3     5    1.0456E+00  1.5790E-01   8.8768E-01  0.000E+00  0.000E+00  0.000E+00  1.06362E+03  1.164E+00  6.655E+00  4.991E-02  1.582E+00
   1    6    8     3     6    8.8768E-01  5.5980E-02   8.3170E-01  0.000E+00  0.000E+00  0.000E+00  1.06158E+03  1.036E+00  6.145E+00  1.844E-02  1.518E+00
   1    5   10     4     1    1.0000E+01  9.0919E-02   9.9091E+00  0.000E+00  0.000E+00  0.000E+00  1.07836E+03  6.368E-01  1.000E+01  2.500E-02  1.212E+00
   1    5    9     4     2    9.9091E+00  1.8158E-01   9.7275E+00  0.000E+00  0.000E+00  0.000E+00  1.07154E+03  6.315E-01  1.000E+01  5.000E-02  1.211E+00
   1    6    8     4     3    9.7275E+00  1.2689E-01   9.6006E+00  0.000E+00  0.000E+00  0.000E+00  1.06381E+03  6.256E-01  1.000E+01  3.500E-02  1.209E+00
   1    6    8     5     1    1.0432E+01  2.2686E-01   1.0205E+01  0.000E+00  0.000E+00  0.000E+00  1.05868E+03  6.790E-01  1.542E+01  6.166E-02  1.226E+00
   1    7    7     5     2    1.0205E+01  2.7894E-01   9.9265E+00  0.000E+00  0.000E+00  0.000E+00  1.05417E+03  6.732E-01  1.519E+01  7.594E-02  1.224E+00
   1    8    7     5     3    9.9265E+00  1.9221E-01   9.7343E+00  0.000E+00  0.000E+00  0.000E+00  1.04992E+03  6.676E-01  1.497E+01  5.241E-02  1.223E+00
   1    8    6     5     4    9.7343E+00  1.3577E-01   9.5985E+00  0.000E+00  0.000E+00  0.000E+00  1.04691E+03  6.637E-01  1.482E+01  3.706E-02  1.221E+00
   1    9    6     6     1    2.1770E+01  2.4720E-01   2.1522E+01  0.000E+00  0.000E+00  0.000E+00  1.04385E+03  1.120E+00  1.200E+01  6.000E-02  1.373E+00
   1   10    7     6     2    2.1522E+01  2.4674E-01   2.1276E+01  0.000E+00  0.000E+00  0.000E+00  1.03929E+03  1.112E+00  1.200E+01  6.000E-02  1.371E+00
   1   11    7     6     3    2.1276E+01  2.4627E-01   2.1029E+01  0.000E+00  0.000E+00  0.000E+00  1.03474E+03  1.105E+00  1.200E+01  6.000E-02  1.368E+00
   1   12    7     6     4    2.1029E+01  2.4581E-01   2.0784E+01  0.000E+00  0.000E+00  0.000E+00  1.03019E+03  1.097E+00  1.200E+01  6.000E-02  1.366E+00
   1   13    7     6     5    2.0784E+01  1.3478E-02   2.0770E+01  0.000E+00  0.000E+00  0.000E+00  1.02700E+03  1.093E+00  1.200E+01  2.400E-02  1.872E-01
   1   14    9     7     1    1.5000E+02  1.4080E+00   1.4859E+02  0.000E+00  0.000E+00  0.000E+00  1.03987E+03  2.288E+00  5.529E+01  5.593E-01  8.391E-01
   1   13    8     7     2    1.4859E+02  2.0464E+00   1.4655E+02  0.000E+00  0.000E+00  0.000E+00  1.03478E+03  2.278E+00  5.525E+01  6.147E-01  1.110E+00
   1   13    7     7     3    1.4655E+02  1.8130E+00   1.4473E+02  0.000E+00  0.000E+00  0.000E+00  1.02969E+03  2.268E+00  5.521E+01  5.583E-01  1.082E+00
   1   13    6     8     1    1.6550E+02  1.2237E+00   1.6428E+02  0.000E+00  0.000E+00  0.000E+00  1.02479E+03  2.919E+00  4.232E+01  4.313E-01  9.458E-01
   1   13    5     8     2    1.6428E+02  4.4762E-01   1.6383E+02  0.000E+00  0.000E+00  0.000E+00  1.01854E+03  2.913E+00  4.224E+01  4.304E-01  3.466E-01
   1   13    4     8     3    1.6383E+02 -1.4297E+00   1.6526E+02  0.000E+00  0.000E+00  0.000E+00  1.01229E+03  2.916E+00  4.229E+01  4.309E+00 -1.106E-01
   1   13    3     8     4    1.6526E+02 -3.0735E+00   1.6833E+02  0.000E+00  0.000E+00  0.000E+00  1.00606E+03  2.931E+00  4.250E+01  4.331E+00 -2.365E-01
   1   13    2     8     5    1.6833E+02 -2.3058E+00   1.7064E+02  0.000E+00  0.000E+00  0.000E+00  9.99824E+02  2.949E+00  4.276E+01  4.357E+00 -1.764E-01
   1   13    1     8     6    1.7064E+02 -1.8588E+00   1.7250E+02  0.000E+00  0.000E+00  0.000E+00  9.94837E+02  2.962E+00  4.295E+01  2.626E+00 -2.359E-01
   1    8    6     9     1    0.0000E+00  0.0000E+00   0.0000E+00  0.000E+00  0.000E+00  0.000E+00  1.07875E+03  0.000E+00  4.000E+00  0.000E+00  1.000E+00
   1    8    5     9     2    0.0000E+00  0.0000E+00   0.0000E+00  0.000E+00  0.000E+00  0.000E+00  1.07825E+03  0.000E+00  4.000E+00  0.000E+00  1.000E+00





UNSATURATED ZONE PACKAGE VOLUMETRIC BUDGET FOR  TIME STEP    30 STRESS PERIOD   39
  ------------------------------------------------------------------------------



     CUMULATIVE VOLUMES      L**3       RATES FOR THIS TIME STEP      L**3/T
     ------------------                 ------------------------

           IN:                                      IN:
           ---                                      ---
        INFILTRATION =  6220493748.3472          INFILTRATION =           0.8475

          OUT:                                     OUT:
          ----                                     ----
              UZF ET =  1291758114.5647                UZF ET =           0.7500
        UZF RECHARGE =  4522009574.5070          UZF RECHARGE =           2.6231

            IN - OUT =   406726059.2755              IN - OUT =          -2.5256

          STORAGE:                                 STORAGE:
          --------                                 --------
      STORAGE CHANGE =   406761846.3995        STORAGE CHANGE =          -2.5256

 PERCENT DISCREPANCY IS DIFFERENCE BETWEEN IN-OUT MINUS CHANGE IN STORAGE
 DIVIDED BY THE AVERAGE OF IN AND OUT TIMES 100

 PERCENT DISCREPANCY =          -0.00     PERCENT DISCREPANCY =           0.00






1
  VOLUMETRIC BUDGET FOR AGRICULTURAL FIELDS AT  END OF TIME STEP   30, STRESS PERIOD  39
  ------------------------------------------------------------------------------

     CUMULATIVE VOLUMES      L**3       RATES FOR THIS TIME STEP      L**3/T
     ------------------                 ------------------------

           IN:                                      IN:
           ---                                      ---
               AG WELLS  =  5348740096.0000                 AG WELLS  =           0.0000
      DIVERSION SEGMENTS =   786998656.0000        DIVERSION SEGMENTS =           0.0000
           GW IRRIGATION =           0.0000             GW IRRIGATION =           0.0000
           SW IRRIGATION =           0.0000             SW IRRIGATION =           0.0000
        SYSTEM LOSSES GW =           0.0000          SYSTEM LOSSES GW =           0.0000
        SYSTEM LOSSES SW =           0.0000          SYSTEM LOSSES SW =           0.0000

                TOTAL IN =  6135738880.0000                  TOTAL IN =           0.0000

          OUT:                                     OUT:
          ----                                     ----
               AG WELLS  =           0.0000                 AG WELLS  =           0.0000
      DIVERSION SEGMENTS =           0.0000        DIVERSION SEGMENTS =           0.0000
           GW IRRIGATION =  5348740096.0000             GW IRRIGATION =           0.0000
           SW IRRIGATION =   787013952.0000             SW IRRIGATION =           0.0000
        SYSTEM LOSSES GW =           0.0000          SYSTEM LOSSES GW =           0.0000
        SYSTEM LOSSES SW =           0.0000          SYSTEM LOSSES SW =           0.0000

               TOTAL OUT =  6135754240.0000                 TOTAL OUT =           0.0000

                IN - OUT =      -15360.0000                  IN - OUT =           0.0000

     PERCENT DISCREPANCY =          -0.00         PERCENT DISCREPANCY =           0.00



1
  VOLUMETRIC BUDGET FOR ENTIRE MODEL AT END OF TIME STEP   30, STRESS PERIOD  39
  ------------------------------------------------------------------------------

     CUMULATIVE VOLUMES      L**3       RATES FOR THIS TIME STEP      L**3/T
     ------------------                 ------------------------

           IN:                                      IN:
           ---                                      ---
             STORAGE     =  5301732864.0000               STORAGE     =           1.5173
       CONSTANT HEAD     =           0.0000         CONSTANT HEAD     =           0.0000
     HEAD DEP BOUNDS     =    28907172.0000       HEAD DEP BOUNDS     =           0.2907
      STREAM LEAKAGE     =  1205167488.0000        STREAM LEAKAGE     =          12.5436
        UZF RECHARGE     =  4522009088.0000          UZF RECHARGE     =           2.6231
               GW ET     =           0.0000                 GW ET     =           0.0000
     SURFACE LEAKAGE     =           0.0000       SURFACE LEAKAGE     =           0.0000
           AG WELLS      =           0.0000             AG WELLS      =           0.0000

                TOTAL IN = 11057816576.0000                  TOTAL IN =          16.9747

          OUT:                                     OUT:
          ----                                     ----
             STORAGE     =  4711572992.0000               STORAGE     =           8.0211
       CONSTANT HEAD     =           0.0000         CONSTANT HEAD     =           0.0000
     HEAD DEP BOUNDS     =    28731074.0000       HEAD DEP BOUNDS     =           0.2867
      STREAM LEAKAGE     =   968655424.0000        STREAM LEAKAGE     =           8.6678
        UZF RECHARGE     =           0.0000          UZF RECHARGE     =           0.0000
               GW ET     =           0.0000                 GW ET     =           0.0000
     SURFACE LEAKAGE     =           0.0000       SURFACE LEAKAGE     =           0.0000
           AG WELLS      =  5348740096.0000             AG WELLS      =           0.0000

               TOTAL OUT = 11057698816.0000                 TOTAL OUT =          16.9756

                IN - OUT =      117760.0000                  IN - OUT =      -9.0218E-04

     PERCENT DISCREPANCY =           0.00         PERCENT DISCREPANCY =          -0.01






         TIME SUMMARY AT END OF TIME STEP   30 IN STRESS PERIOD   39
                    SECONDS     MINUTES      HOURS       DAYS        YEARS
                    -----------------------------------------------------------
   TIME STEP LENGTH  87667.      1461.1      24.352      1.0147     2.77799E-03
 STRESS PERIOD TIME 2.63000E+06  43833.      730.56      30.440     8.33397E-02
         TOTAL TIME 1.00026E+08 1.66710E+06  27785.      1157.7      3.1696    
1
1
                            STRESS PERIOD NO.   40, LENGTH =   2630000.    
                            -----------------------------------------------

                              NUMBER OF TIME STEPS =    30

                               MULTIPLIER FOR DELT =     1.000

                            INITIAL TIME STEP SIZE =   87666.66    

 REUSING NON-PARAMETER GHB CELLS FROM LAST STRESS PERIOD

      2 GHB CELLS

 REUSING STREAM SEGMENT DATA FROM LAST STRESS PERIOD



            AREAL INFILTRATION RATE
 READING ON UNIT   19 WITH FORMAT: (FREE)              

            1           2           3           4           5           6           7           8           9          10
 ........................................................................................................................
   1   1.0000E-10  2.0000E-10   0.000       0.000       0.000       0.000       0.000       0.000       0.000       0.000    
   2   2.0000E-10  1.0000E-10  2.0000E-10   0.000       0.000      8.0000E-10  8.0000E-10  5.0000E-10   0.000       0.000    
   3    0.000      5.0000E-10  1.0000E-10  1.0000E-10  8.0000E-10  8.0000E-10  5.0000E-10  5.0000E-10   0.000       0.000    
   4   8.0000E-10  5.0000E-10  1.0000E-10  1.0000E-10  1.0000E-10  1.0000E-10  1.0000E-10  1.0000E-10  2.0000E-10   0.000    
   5   8.0000E-10  5.0000E-10  1.0000E-10  1.0000E-10  1.0000E-10  1.0000E-10  1.0000E-10  1.0000E-10  1.0000E-10  1.0000E-10
   6   8.0000E-10  5.0000E-10  5.0000E-10  2.0000E-10  2.0000E-10  1.0000E-10  1.0000E-10  1.0000E-10  1.0000E-10  5.0000E-10
   7   8.0000E-10  5.0000E-10  5.0000E-10  2.0000E-10  2.0000E-10  1.0000E-10  1.0000E-10  2.0000E-10  2.0000E-10   0.000    
   8    0.000      5.0000E-10  5.0000E-10  2.0000E-10  2.0000E-10  1.0000E-10  1.0000E-10  2.0000E-10  5.0000E-10   0.000    
   9    0.000      5.0000E-10  5.0000E-10  2.0000E-10  2.0000E-10  1.0000E-10  1.0000E-10  2.0000E-10  5.0000E-10   0.000    
  10    0.000      5.0000E-10  5.0000E-10  2.0000E-10  2.0000E-10  1.0000E-10  1.0000E-10  2.0000E-10  5.0000E-10  8.0000E-10
  11    0.000      1.0000E-10  1.0000E-10  1.0000E-10  1.0000E-10  1.0000E-10  1.0000E-10  2.0000E-10  5.0000E-10   0.000    
  12   1.0000E-10  1.0000E-10  1.0000E-10  1.0000E-10  1.0000E-10  1.0000E-10  1.0000E-10  1.0000E-10  2.0000E-10   0.000    
  13   1.0000E-10  1.0000E-10  2.0000E-10  2.0000E-10  2.0000E-10  2.0000E-10  2.0000E-10  1.0000E-10  1.0000E-10   0.000    
  14    0.000      2.0000E-10  5.0000E-10  5.0000E-10  5.0000E-10  5.0000E-10  5.0000E-10  2.0000E-10  1.0000E-10   0.000    
  15    0.000       0.000      8.0000E-10  8.0000E-10  8.0000E-10  8.0000E-10   0.000       0.000       0.000       0.000    

                  ET RATE =  5.000000E-10

 USING ET EXTINCTION DEPTH FROM PREVIOUS STRESS PERIOD. CURRENT PERIOD IS:      40

 USING EXTINCTION WATER CONTENT FROM PREVIOUS STRESS PERIOD. CURRENT PERIOD IS:      40

 USING AIR ENTRY PRESSURE FROM PREVIOUS STRESS PERIOD. CURRENT PERIOD IS:      40

 USING ROOT PRESSURE HEAD FROM PREVIOUS STRESS PERIOD. CURRENT PERIOD IS:      40

 USING ROOT ACTIVITY FROM PREVIOUS STRESS PERIOD. CURRENT PERIOD IS:      40

 PROCESSING AG STRESS PERIOD DATA

 READING AG STRESS PERIOD DATA

 READING IRRIGATION SEGMENT

 READING IRRIGATION WELL

 READING SUPPLEMENTAL WELL

 END PROCESSING AG STRESS PERIOD DATA OPTIONS
 
 SOLVING FOR HEAD 
                                                   Max.-Head-Change                         Max.-Flux-Residual
  Residual-Control   Outer-Iter.   Inner-Iter.     Column Row Layer    Maximum-Head-Change  Column Row Layer    Maximum-Flux-Residual          L2-NORM 
          0                 1           2             4   13     1       0.1178458556E-01       4   13    1         0.6760091257E+00      0.1714499880E+01
          0                 2           2             4   13     1      -0.1133732103E-02       4   13    1        -0.6686756978E-01      0.1728031339E+00
          0                 3           1             4    7     1      -0.1232999822E-03       4    7    1        -0.6617352867E-02      0.1481991149E-01
          0                 4           1             4    7     1      -0.2925307604E-04       4    7    1        -0.1566778872E-02      0.2233572472E-02

    ------------------------------------------------
       NWT REQUIRED            4 OUTER ITERATIONS 
       AND A TOTAL OF          6 INNER ITERATIONS.
    ------------------------------------------------

 NO OUTPUT CONTROL FOR STRESS PERIOD   40   TIME STEP    1
 
 SOLVING FOR HEAD 
                                                   Max.-Head-Change                         Max.-Flux-Residual
  Residual-Control   Outer-Iter.   Inner-Iter.     Column Row Layer    Maximum-Head-Change  Column Row Layer    Maximum-Flux-Residual          L2-NORM 
          0                 1           2             4   13     1       0.1068656024E-01       4   13    1         0.6125908743E+00      0.1651264194E+01
          0                 2           2             4   13     1      -0.1028030803E-02       4   13    1        -0.6059018679E-01      0.1664285159E+00
          0                 3           1             4    7     1      -0.1159817034E-03       4    7    1        -0.6230375785E-02      0.1414310454E-01
          0                 4           1             4    7     1      -0.2748320101E-04       4    7    1        -0.1473232046E-02      0.2089926916E-02

    ------------------------------------------------
       NWT REQUIRED            4 OUTER ITERATIONS 
       AND A TOTAL OF          6 INNER ITERATIONS.
    ------------------------------------------------

 NO OUTPUT CONTROL FOR STRESS PERIOD   40   TIME STEP    2
 
 SOLVING FOR HEAD 
                                                   Max.-Head-Change                         Max.-Flux-Residual
  Residual-Control   Outer-Iter.   Inner-Iter.     Column Row Layer    Maximum-Head-Change  Column Row Layer    Maximum-Flux-Residual          L2-NORM 
          0                 1           2             4   13     1       0.9698005458E-02       4   13    1         0.5555133493E+00      0.1595379975E+01
          0                 2           2             4   13     1      -0.9328853940E-03       4   13    1        -0.5494147040E-01      0.1608005828E+00
          0                 3           1             4    7     1      -0.1088594215E-03       4    7    1        -0.5853834070E-02      0.1352752941E-01
          0                 4           1             4    7     1      -0.2576033985E-04       4    7    1        -0.1382183475E-02      0.1954335772E-02

    ------------------------------------------------
       NWT REQUIRED            4 OUTER ITERATIONS 
       AND A TOTAL OF          6 INNER ITERATIONS.
    ------------------------------------------------

 NO OUTPUT CONTROL FOR STRESS PERIOD   40   TIME STEP    3
 
 SOLVING FOR HEAD 
                                                   Max.-Head-Change                         Max.-Flux-Residual
  Residual-Control   Outer-Iter.   Inner-Iter.     Column Row Layer    Maximum-Head-Change  Column Row Layer    Maximum-Flux-Residual          L2-NORM 
          0                 1           2             4   13     1       0.8807815152E-02       4   13    1         0.5041319207E+00      0.1545956467E+01
          0                 2           2             4   13     1      -0.8471926229E-03       4   13    1        -0.4985567282E-01      0.1558030565E+00
          0                 3           1             4    7     1      -0.1019419817E-03       4    7    1        -0.5488062595E-02      0.1296105336E-01
          0                 4           1             4    7     1      -0.2408740461E-04       4    7    1        -0.1293759569E-02      0.1826374387E-02

    ------------------------------------------------
       NWT REQUIRED            4 OUTER ITERATIONS 
       AND A TOTAL OF          6 INNER ITERATIONS.
    ------------------------------------------------

 NO OUTPUT CONTROL FOR STRESS PERIOD   40   TIME STEP    4
 
 SOLVING FOR HEAD 
                                                   Max.-Head-Change                         Max.-Flux-Residual
  Residual-Control   Outer-Iter.   Inner-Iter.     Column Row Layer    Maximum-Head-Change  Column Row Layer    Maximum-Flux-Residual          L2-NORM 
          0                 1           2             4   13     1       0.8005817348E-02       4   13    1         0.4578563601E+00      0.1502228042E+01
          0                 2           2             4   13     1      -0.7699586174E-03       4   13    1        -0.4527341437E-01      0.1513775762E+00
          0                 3           1             4    7     1      -0.9521827189E-04       4    7    1        -0.5132455921E-02      0.1247041255E-01

    ------------------------------------------------
       NWT REQUIRED            3 OUTER ITERATIONS 
       AND A TOTAL OF          5 INNER ITERATIONS.
    ------------------------------------------------

 NO OUTPUT CONTROL FOR STRESS PERIOD   40   TIME STEP    5
 
 SOLVING FOR HEAD 
                                                   Max.-Head-Change                         Max.-Flux-Residual
  Residual-Control   Outer-Iter.   Inner-Iter.     Column Row Layer    Maximum-Head-Change  Column Row Layer    Maximum-Flux-Residual          L2-NORM 
          0                 1           2             4   13     1       0.7282896210E-02       4   13    1         0.4161577809E+00      0.1463515279E+01
          0                 2           2             4   13     1      -0.7003854747E-03       4   13    1        -0.4114709445E-01      0.1474637179E+00
          0                 3           1             4    7     1      -0.8873045895E-04       4    7    1        -0.4789312759E-02      0.1202751013E-01

    ------------------------------------------------
       NWT REQUIRED            3 OUTER ITERATIONS 
       AND A TOTAL OF          5 INNER ITERATIONS.
    ------------------------------------------------

 NO OUTPUT CONTROL FOR STRESS PERIOD   40   TIME STEP    6
 
 SOLVING FOR HEAD 
                                                   Max.-Head-Change                         Max.-Flux-Residual
  Residual-Control   Outer-Iter.   Inner-Iter.     Column Row Layer    Maximum-Head-Change  Column Row Layer    Maximum-Flux-Residual          L2-NORM 
          0                 1           2             4   13     1       0.6631292547E-02       4   13    1         0.3785860092E+00      0.1429201781E+01
          0                 2           2             4   13     1      -0.6376393364E-03       4   13    1        -0.3742699711E-01      0.1439971543E+00
          0                 3           1             4    7     1      -0.8242910705E-04       4    7    1        -0.4456021190E-02      0.1163480866E-01

    ------------------------------------------------
       NWT REQUIRED            3 OUTER ITERATIONS 
       AND A TOTAL OF          5 INNER ITERATIONS.
    ------------------------------------------------

 NO OUTPUT CONTROL FOR STRESS PERIOD   40   TIME STEP    7
 
 SOLVING FOR HEAD 
                                                   Max.-Head-Change                         Max.-Flux-Residual
  Residual-Control   Outer-Iter.   Inner-Iter.     Column Row Layer    Maximum-Head-Change  Column Row Layer    Maximum-Flux-Residual          L2-NORM 
          0                 1           2             2   13     1       0.6130011084E-02       2   13    1         0.3450247976E+00      0.1398733826E+01
          0                 2           2             4   13     1      -0.5810818188E-03       4   13    1        -0.3407504041E-01      0.1409275118E+00
          0                 3           1             4    7     1      -0.7630876502E-04       4    7    1        -0.4132247220E-02      0.1129145752E-01

    ------------------------------------------------
       NWT REQUIRED            3 OUTER ITERATIONS 
       AND A TOTAL OF          5 INNER ITERATIONS.
    ------------------------------------------------

 NO OUTPUT CONTROL FOR STRESS PERIOD   40   TIME STEP    8
 
 SOLVING FOR HEAD 
                                                   Max.-Head-Change                         Max.-Flux-Residual
  Residual-Control   Outer-Iter.   Inner-Iter.     Column Row Layer    Maximum-Head-Change  Column Row Layer    Maximum-Flux-Residual          L2-NORM 
          0                 1           2             3    5     1       0.5798733751E-02       2   13    1         0.3194430203E+00      0.1371639505E+01
          0                 2           2             3    5     1      -0.5641130447E-03       4   13    1        -0.3105136584E-01      0.1382070225E+00
          0                 3           1             4    7     1      -0.7035829303E-04       4    7    1        -0.3817403571E-02      0.1099257188E-01

    ------------------------------------------------
       NWT REQUIRED            3 OUTER ITERATIONS 
       AND A TOTAL OF          5 INNER ITERATIONS.
    ------------------------------------------------

 NO OUTPUT CONTROL FOR STRESS PERIOD   40   TIME STEP    9
 
 SOLVING FOR HEAD 
                                                   Max.-Head-Change                         Max.-Flux-Residual
  Residual-Control   Outer-Iter.   Inner-Iter.     Column Row Layer    Maximum-Head-Change  Column Row Layer    Maximum-Flux-Residual          L2-NORM 
          0                 1           2             3    5     1       0.5733315549E-02       5    4    1         0.2997447269E+00      0.1347482528E+01
          0                 2           2             3    5     1      -0.5577434719E-03       5    4    1        -0.2997453283E-01      0.1357951506E+00
          0                 3           1             4    7     1      -0.6458005187E-04       4    7    1        -0.3511641429E-02      0.1073754859E-01

    ------------------------------------------------
       NWT REQUIRED            3 OUTER ITERATIONS 
       AND A TOTAL OF          5 INNER ITERATIONS.
    ------------------------------------------------

 NO OUTPUT CONTROL FOR STRESS PERIOD   40   TIME STEP   10
 
 SOLVING FOR HEAD 
                                                   Max.-Head-Change                         Max.-Flux-Residual
  Residual-Control   Outer-Iter.   Inner-Iter.     Column Row Layer    Maximum-Head-Change  Column Row Layer    Maximum-Flux-Residual          L2-NORM 
          0                 1           2             3    5     1       0.5669547387E-02       5    4    1         0.2962546738E+00      0.1325889622E+01
          0                 2           2             3    5     1      -0.5515346365E-03       5    4    1        -0.2962552496E-01      0.1336543039E+00
          0                 3           1             4    7     1      -0.5896870357E-04       4    7    1        -0.3214689769E-02      0.1052194351E-01

    ------------------------------------------------
       NWT REQUIRED            3 OUTER ITERATIONS 
       AND A TOTAL OF          5 INNER ITERATIONS.
    ------------------------------------------------

 NO OUTPUT CONTROL FOR STRESS PERIOD   40   TIME STEP   11
 
 SOLVING FOR HEAD 
                                                   Max.-Head-Change                         Max.-Flux-Residual
  Residual-Control   Outer-Iter.   Inner-Iter.     Column Row Layer    Maximum-Head-Change  Column Row Layer    Maximum-Flux-Residual          L2-NORM 
          0                 1           2             3    5     1       0.5606915634E-02       5    4    1         0.2929057957E+00      0.1306542021E+01
          0                 2           2             3    5     1      -0.5454365554E-03       5    4    1        -0.2929063477E-01      0.1317543626E+00
          0                 3           1             5    8     1       0.6034681654E-04       5    8    1         0.3267050314E-02      0.1034515654E-01

    ------------------------------------------------
       NWT REQUIRED            3 OUTER ITERATIONS 
       AND A TOTAL OF          5 INNER ITERATIONS.
    ------------------------------------------------

 NO OUTPUT CONTROL FOR STRESS PERIOD   40   TIME STEP   12
 
 SOLVING FOR HEAD 
                                                   Max.-Head-Change                         Max.-Flux-Residual
  Residual-Control   Outer-Iter.   Inner-Iter.     Column Row Layer    Maximum-Head-Change  Column Row Layer    Maximum-Flux-Residual          L2-NORM 
          0                 1           2             3    5     1       0.5545889967E-02       5    4    1         0.2896901462E+00      0.1289147729E+01
          0                 2           2             3    5     1      -0.5394949221E-03       5    4    1        -0.2896906755E-01      0.1300653513E+00
          0                 3           1             5    8     1       0.6204565354E-04       5    8    1         0.3355920915E-02      0.1020358525E-01

    ------------------------------------------------
       NWT REQUIRED            3 OUTER ITERATIONS 
       AND A TOTAL OF          5 INNER ITERATIONS.
    ------------------------------------------------

 NO OUTPUT CONTROL FOR STRESS PERIOD   40   TIME STEP   13
 
 SOLVING FOR HEAD 
                                                   Max.-Head-Change                         Max.-Flux-Residual
  Residual-Control   Outer-Iter.   Inner-Iter.     Column Row Layer    Maximum-Head-Change  Column Row Layer    Maximum-Flux-Residual          L2-NORM 
          0                 1           2             3    5     1       0.5485953644E-02       5    4    1         0.2866006944E+00      0.1273452380E+01
          0                 2           2             3    5     1      -0.5336594515E-03       5    4    1        -0.2866012024E-01      0.1285626182E+00
          0                 3           1             5    8     1       0.6369464678E-04       5    8    1         0.3442173730E-02      0.1009403324E-01

    ------------------------------------------------
       NWT REQUIRED            3 OUTER ITERATIONS 
       AND A TOTAL OF          5 INNER ITERATIONS.
    ------------------------------------------------

 NO OUTPUT CONTROL FOR STRESS PERIOD   40   TIME STEP   14
 
 SOLVING FOR HEAD 
                                                   Max.-Head-Change                         Max.-Flux-Residual
  Residual-Control   Outer-Iter.   Inner-Iter.     Column Row Layer    Maximum-Head-Change  Column Row Layer    Maximum-Flux-Residual          L2-NORM 
          0                 1           2             3    5     1       0.5427576331E-02       5    4    1         0.2836370187E+00      0.1259252511E+01
          0                 2           2             3    5     1      -0.5279758131E-03       5    4    1        -0.2836375067E-01      0.1272242180E+00
          0                 3           1             5    8     1       0.6528862221E-04       5    8    1         0.3525519603E-02      0.1001482376E-01

    ------------------------------------------------
       NWT REQUIRED            3 OUTER ITERATIONS 
       AND A TOTAL OF          5 INNER ITERATIONS.
    ------------------------------------------------

 NO OUTPUT CONTROL FOR STRESS PERIOD   40   TIME STEP   15
 
 SOLVING FOR HEAD 
                                                   Max.-Head-Change                         Max.-Flux-Residual
  Residual-Control   Outer-Iter.   Inner-Iter.     Column Row Layer    Maximum-Head-Change  Column Row Layer    Maximum-Flux-Residual          L2-NORM 
          0                 1           2             3    5     1       0.5370484280E-02       5    4    1         0.2807794360E+00      0.1246354372E+01
          0                 2           2             3    5     1      -0.5224173927E-03       5    4    1        -0.2807799053E-01      0.1260312637E+00
          0                 3           1             5    8     1       0.6683727053E-04       5    8    1         0.3606491607E-02      0.9962995988E-02

    ------------------------------------------------
       NWT REQUIRED            3 OUTER ITERATIONS 
       AND A TOTAL OF          5 INNER ITERATIONS.
    ------------------------------------------------

 NO OUTPUT CONTROL FOR STRESS PERIOD   40   TIME STEP   16
 
 SOLVING FOR HEAD 
                                                   Max.-Head-Change                         Max.-Flux-Residual
  Residual-Control   Outer-Iter.   Inner-Iter.     Column Row Layer    Maximum-Head-Change  Column Row Layer    Maximum-Flux-Residual          L2-NORM 
          0                 1           2             3    5     1       0.5314653204E-02       5    4    1         0.2780351504E+00      0.1234588010E+01
          0                 2           2             3    5     1      -0.5169817945E-03       5    4    1        -0.2780356019E-01      0.1249665974E+00
          0                 3           1             5    8     1       0.6834252245E-04       5    8    1         0.3685189945E-02      0.9936655393E-02

    ------------------------------------------------
       NWT REQUIRED            3 OUTER ITERATIONS 
       AND A TOTAL OF          5 INNER ITERATIONS.
    ------------------------------------------------

 NO OUTPUT CONTROL FOR STRESS PERIOD   40   TIME STEP   17
 
 SOLVING FOR HEAD 
                                                   Max.-Head-Change                         Max.-Flux-Residual
  Residual-Control   Outer-Iter.   Inner-Iter.     Column Row Layer    Maximum-Head-Change  Column Row Layer    Maximum-Flux-Residual          L2-NORM 
          0                 1           2             3    5     1       0.5260056775E-02       5    4    1         0.2753917675E+00      0.1223828279E+01
          0                 2           2             3    5     1      -0.5116664664E-03       5    4    1        -0.2753922023E-01      0.1240152300E+00
          0                 3           1             5    8     1       0.6979145561E-04       5    8    1         0.3760898200E-02      0.9931980783E-02

    ------------------------------------------------
       NWT REQUIRED            3 OUTER ITERATIONS 
       AND A TOTAL OF          5 INNER ITERATIONS.
    ------------------------------------------------

 NO OUTPUT CONTROL FOR STRESS PERIOD   40   TIME STEP   18
 
 SOLVING FOR HEAD 
                                                   Max.-Head-Change                         Max.-Flux-Residual
  Residual-Control   Outer-Iter.   Inner-Iter.     Column Row Layer    Maximum-Head-Change  Column Row Layer    Maximum-Flux-Residual          L2-NORM 
          0                 1           2             3    5     1       0.5206915679E-02       5    4    1         0.2728439339E+00      0.1213941119E+01
          0                 2           2             3    5     1      -0.5064928591E-03       5    4    1        -0.2728443530E-01      0.1231642761E+00
          0                 3           1             5    8     1       0.7120878763E-04       5    8    1         0.3834979888E-02      0.9947460538E-02

    ------------------------------------------------
       NWT REQUIRED            3 OUTER ITERATIONS 
       AND A TOTAL OF          5 INNER ITERATIONS.
    ------------------------------------------------

 NO OUTPUT CONTROL FOR STRESS PERIOD   40   TIME STEP   19
 
 SOLVING FOR HEAD 
                                                   Max.-Head-Change                         Max.-Flux-Residual
  Residual-Control   Outer-Iter.   Inner-Iter.     Column Row Layer    Maximum-Head-Change  Column Row Layer    Maximum-Flux-Residual          L2-NORM 
          0                 1           2             4    3     1       0.5161513919E-02       5    4    1         0.2703932856E+00      0.1204833184E+01
          0                 2           2             4    3     1      -0.5020749499E-03       5    4    1        -0.2703936895E-01      0.1224034019E+00
          0                 3           1             5    8     1       0.7258071685E-04       5    8    1         0.3906666731E-02      0.9981061963E-02

    ------------------------------------------------
       NWT REQUIRED            3 OUTER ITERATIONS 
       AND A TOTAL OF          5 INNER ITERATIONS.
    ------------------------------------------------

 NO OUTPUT CONTROL FOR STRESS PERIOD   40   TIME STEP   20
 
 SOLVING FOR HEAD 
                                                   Max.-Head-Change                         Max.-Flux-Residual
  Residual-Control   Outer-Iter.   Inner-Iter.     Column Row Layer    Maximum-Head-Change  Column Row Layer    Maximum-Flux-Residual          L2-NORM 
          0                 1           2             4    3     1       0.5130069931E-02       4    3    1         0.2680758200E+00      0.1196403862E+01
          0                 2           2             4    3     1      -0.4990162519E-03       4    3    1        -0.2680761118E-01      0.1217216748E+00
          0                 3           1             5    8     1       0.7390929096E-04       5    8    1         0.3976069145E-02      0.1003043775E-01

    ------------------------------------------------
       NWT REQUIRED            3 OUTER ITERATIONS 
       AND A TOTAL OF          5 INNER ITERATIONS.
    ------------------------------------------------

 NO OUTPUT CONTROL FOR STRESS PERIOD   40   TIME STEP   21
 
 SOLVING FOR HEAD 
                                                   Max.-Head-Change                         Max.-Flux-Residual
  Residual-Control   Outer-Iter.   Inner-Iter.     Column Row Layer    Maximum-Head-Change  Column Row Layer    Maximum-Flux-Residual          L2-NORM 
          0                 1           2             4    3     1       0.5099549175E-02       4    3    1         0.2664574808E+00      0.1188578902E+01
          0                 2           2             4    3     1      -0.4960473604E-03       4    3    1        -0.2664577666E-01      0.1211102907E+00
          0                 3           1             5    8     1       0.7520341277E-04       5    8    1         0.4043680376E-02      0.1009379841E-01

    ------------------------------------------------
       NWT REQUIRED            3 OUTER ITERATIONS 
       AND A TOTAL OF          5 INNER ITERATIONS.
    ------------------------------------------------

 NO OUTPUT CONTROL FOR STRESS PERIOD   40   TIME STEP   22
 
 SOLVING FOR HEAD 
                                                   Max.-Head-Change                         Max.-Flux-Residual
  Residual-Control   Outer-Iter.   Inner-Iter.     Column Row Layer    Maximum-Head-Change  Column Row Layer    Maximum-Flux-Residual          L2-NORM 
          0                 1           2             4    3     1       0.5069467475E-02       4    3    1         0.2648630319E+00      0.1181282643E+01
          0                 2           2             4    3     1      -0.4931211797E-03       4    3    1        -0.2648633119E-01      0.1205614646E+00
          0                 3           1             5    8     1       0.7645754795E-04       5    8    1         0.4109181654E-02      0.1016929472E-01

    ------------------------------------------------
       NWT REQUIRED            3 OUTER ITERATIONS 
       AND A TOTAL OF          5 INNER ITERATIONS.
    ------------------------------------------------

 NO OUTPUT CONTROL FOR STRESS PERIOD   40   TIME STEP   23
 
 SOLVING FOR HEAD 
                                                   Max.-Head-Change                         Max.-Flux-Residual
  Residual-Control   Outer-Iter.   Inner-Iter.     Column Row Layer    Maximum-Head-Change  Column Row Layer    Maximum-Flux-Residual          L2-NORM 
          0                 1           2             4    3     1       0.5039814904E-02       4    3    1         0.2632913470E+00      0.1174467706E+01
          0                 2           2             4    3     1      -0.4902367429E-03       4    3    1        -0.2632916217E-01      0.1200690433E+00
          0                 3           1             5    8     1       0.7767968055E-04       5    8    1         0.4173028421E-02      0.1025511023E-01

    ------------------------------------------------
       NWT REQUIRED            3 OUTER ITERATIONS 
       AND A TOTAL OF          5 INNER ITERATIONS.
    ------------------------------------------------

 NO OUTPUT CONTROL FOR STRESS PERIOD   40   TIME STEP   24
 
 SOLVING FOR HEAD 
                                                   Max.-Head-Change                         Max.-Flux-Residual
  Residual-Control   Outer-Iter.   Inner-Iter.     Column Row Layer    Maximum-Head-Change  Column Row Layer    Maximum-Flux-Residual          L2-NORM 
          0                 1           2             4    3     1       0.5011023678E-02       4    3    1         0.2617658903E+00      0.1168078642E+01
          0                 2           2             4    3     1      -0.4874360929E-03       4    3    1        -0.2617661593E-01      0.1196274555E+00
          0                 3           1             5    8     1       0.7886494015E-04       5    8    1         0.4234925101E-02      0.1035015033E-01

    ------------------------------------------------
       NWT REQUIRED            3 OUTER ITERATIONS 
       AND A TOTAL OF          5 INNER ITERATIONS.
    ------------------------------------------------

 NO OUTPUT CONTROL FOR STRESS PERIOD   40   TIME STEP   25
 
 SOLVING FOR HEAD 
                                                   Max.-Head-Change                         Max.-Flux-Residual
  Residual-Control   Outer-Iter.   Inner-Iter.     Column Row Layer    Maximum-Head-Change  Column Row Layer    Maximum-Flux-Residual          L2-NORM 
          0                 1           2             4    3     1       0.4982616350E-02       4    3    1         0.2602611144E+00      0.1162061042E+01
          0                 2           2             4    3     1      -0.4846727880E-03       4    3    1        -0.2602613784E-01      0.1192296778E+00
          0                 3           1             5    8     1       0.8002043954E-04       5    8    1         0.4295287785E-02      0.1045267614E-01

    ------------------------------------------------
       NWT REQUIRED            3 OUTER ITERATIONS 
       AND A TOTAL OF          5 INNER ITERATIONS.
    ------------------------------------------------

 NO OUTPUT CONTROL FOR STRESS PERIOD   40   TIME STEP   26
 
 SOLVING FOR HEAD 
                                                   Max.-Head-Change                         Max.-Flux-Residual
  Residual-Control   Outer-Iter.   Inner-Iter.     Column Row Layer    Maximum-Head-Change  Column Row Layer    Maximum-Flux-Residual          L2-NORM 
          0                 1           2             4    3     1       0.4954803941E-02       4    3    1         0.2587882323E+00      0.1156386517E+01
          0                 2           2             4    3     1      -0.4819673534E-03       4    3    1        -0.2587884912E-01      0.1188728911E+00
          0                 3           1             5    8     1       0.8114150727E-04       5    8    1         0.4353828453E-02      0.1056179030E-01

    ------------------------------------------------
       NWT REQUIRED            3 OUTER ITERATIONS 
       AND A TOTAL OF          5 INNER ITERATIONS.
    ------------------------------------------------

 NO OUTPUT CONTROL FOR STRESS PERIOD   40   TIME STEP   27
 
 SOLVING FOR HEAD 
                                                   Max.-Head-Change                         Max.-Flux-Residual
  Residual-Control   Outer-Iter.   Inner-Iter.     Column Row Layer    Maximum-Head-Change  Column Row Layer    Maximum-Flux-Residual          L2-NORM 
          0                 1           2             4    3     1       0.4927567965E-02       4    3    1         0.2573461960E+00      0.1151025531E+01
          0                 2           2             4    3     1      -0.4793179915E-03       4    3    1        -0.2573464498E-01      0.1185522907E+00
          0                 3           1             5    8     1       0.8222819773E-04       5    8    1         0.4410572063E-02      0.1067623807E-01

    ------------------------------------------------
       NWT REQUIRED            3 OUTER ITERATIONS 
       AND A TOTAL OF          5 INNER ITERATIONS.
    ------------------------------------------------

 NO OUTPUT CONTROL FOR STRESS PERIOD   40   TIME STEP   28
 
 SOLVING FOR HEAD 
                                                   Max.-Head-Change                         Max.-Flux-Residual
  Residual-Control   Outer-Iter.   Inner-Iter.     Column Row Layer    Maximum-Head-Change  Column Row Layer    Maximum-Flux-Residual          L2-NORM 
          0                 1           2             4    3     1       0.4900888633E-02       4    3    1         0.2559340469E+00      0.1145934362E+01
          0                 2           2             4    3     1      -0.4767227767E-03       4    3    1        -0.2559342959E-01      0.1182637392E+00
          0                 3           1             5    8     1       0.8328980068E-04       5    8    1         0.4466016367E-02      0.1079497590E-01

    ------------------------------------------------
       NWT REQUIRED            3 OUTER ITERATIONS 
       AND A TOTAL OF          5 INNER ITERATIONS.
    ------------------------------------------------

 NO OUTPUT CONTROL FOR STRESS PERIOD   40   TIME STEP   29
 
 SOLVING FOR HEAD 
                                                   Max.-Head-Change                         Max.-Flux-Residual
  Residual-Control   Outer-Iter.   Inner-Iter.     Column Row Layer    Maximum-Head-Change  Column Row Layer    Maximum-Flux-Residual          L2-NORM 
          0                 1           2             4    3     1       0.4874524716E-02       4    3    1         0.2545387688E+00      0.1141096350E+01
          0                 2           2             4    3     1      -0.4741582458E-03       4    3    1        -0.2545390133E-01      0.1180044494E+00
          0                 3           1             5    8     1       0.8431927662E-04       5    8    1         0.4519775842E-02      0.1091710874E-01

    ------------------------------------------------
       NWT REQUIRED            3 OUTER ITERATIONS 
       AND A TOTAL OF          5 INNER ITERATIONS.
    ------------------------------------------------

 NO OUTPUT CONTROL FOR STRESS PERIOD   40   TIME STEP   30



 STREAM LISTING     PERIOD     40   STEP       30

 LAYER ROW COL. STREAM  RCH.  FLOW INTO     FLOW TO   FLOW OUT OF   OVRLND.     DIRECT     STREAM       STREAM     STREAM     STREAM   STREAMBED  STREAMBED
                SEG.NO.  NO.  STRM. RCH.    AQUIFER    STRM. RCH.    RUNOFF     PRECIP       ET          HEAD       DEPTH      WIDTH   CONDCTNC.   GRADIENT

   1    1    1     1     1    3.6749E+01  2.9261E-01   3.6456E+01  0.000E+00  0.000E+00  0.000E+00  1.09435E+03  1.306E+00  1.510E+01  6.795E-02  1.435E+00
   1    2    2     1     2    3.6456E+01  4.5309E-01   3.6003E+01  0.000E+00  0.000E+00  0.000E+00  1.08936E+03  1.303E+00  1.504E+01  1.053E-01  1.434E+00
   1    3    3     1     3    3.6003E+01  3.8635E-01   3.5617E+01  0.000E+00  0.000E+00  0.000E+00  1.08372E+03  1.300E+00  1.497E+01  8.985E-02  1.433E+00
   1    3    4     1     4    3.5617E+01  3.5571E-01   3.5261E+01  0.000E+00  0.000E+00  0.000E+00  1.07870E+03  1.297E+00  1.492E+01  8.278E-02  1.432E+00
   1    4    5     2     1    3.3261E+01  3.4544E-01   3.2916E+01  0.000E+00  0.000E+00  0.000E+00  1.07336E+03  1.429E+00  1.200E+01  7.800E-02  1.476E+00
   1    5    6     2     2    3.2916E+01  2.6525E-01   3.2650E+01  0.000E+00  0.000E+00  0.000E+00  1.06793E+03  1.421E+00  1.200E+01  6.000E-02  1.474E+00
   1    6    6     2     3    3.2650E+01  2.6483E-01   3.2386E+01  0.000E+00  0.000E+00  0.000E+00  1.06321E+03  1.414E+00  1.200E+01  6.000E-02  1.471E+00
   1    7    6     2     4    3.2386E+01  2.6442E-01   3.2121E+01  0.000E+00  0.000E+00  0.000E+00  1.05848E+03  1.407E+00  1.200E+01  6.000E-02  1.469E+00
   1    8    6     2     5    3.2121E+01  2.6400E-01   3.1857E+01  0.000E+00  0.000E+00  0.000E+00  1.05376E+03  1.400E+00  1.200E+01  6.000E-02  1.467E+00
   1    3    5     3     1    2.0000E+00  2.8252E-01   1.7175E+00  0.000E+00  0.000E+00  0.000E+00  1.07555E+03  1.909E+00  9.636E+00  7.227E-02  1.955E+00
   1    3    6     3     2    1.7175E+00  2.4905E-01   1.4684E+00  0.000E+00  0.000E+00  0.000E+00  1.07264E+03  1.727E+00  8.909E+00  6.682E-02  1.864E+00
   1    3    7     3     3    1.4684E+00  1.9718E-01   1.2712E+00  0.000E+00  0.000E+00  0.000E+00  1.06987E+03  1.555E+00  8.218E+00  5.547E-02  1.777E+00
   1    4    8     3     4    1.2712E+00  2.2567E-01   1.0456E+00  0.000E+00  0.000E+00  0.000E+00  1.06682E+03  1.364E+00  7.455E+00  6.709E-02  1.682E+00
   1    5    8     3     5    1.0456E+00  1.5790E-01   8.8768E-01  0.000E+00  0.000E+00  0.000E+00  1.06362E+03  1.164E+00  6.655E+00  4.991E-02  1.582E+00
   1    6    8     3     6    8.8768E-01  5.5980E-02   8.3170E-01  0.000E+00  0.000E+00  0.000E+00  1.06158E+03  1.036E+00  6.145E+00  1.844E-02  1.518E+00
   1    5   10     4     1    1.0000E+01  9.0919E-02   9.9091E+00  0.000E+00  0.000E+00  0.000E+00  1.07836E+03  6.368E-01  1.000E+01  2.500E-02  1.212E+00
   1    5    9     4     2    9.9091E+00  1.8158E-01   9.7275E+00  0.000E+00  0.000E+00  0.000E+00  1.07154E+03  6.315E-01  1.000E+01  5.000E-02  1.211E+00
   1    6    8     4     3    9.7275E+00  1.2689E-01   9.6006E+00  0.000E+00  0.000E+00  0.000E+00  1.06381E+03  6.256E-01  1.000E+01  3.500E-02  1.209E+00
   1    6    8     5     1    1.0432E+01  2.2686E-01   1.0205E+01  0.000E+00  0.000E+00  0.000E+00  1.05868E+03  6.790E-01  1.542E+01  6.166E-02  1.226E+00
   1    7    7     5     2    1.0205E+01  2.7894E-01   9.9265E+00  0.000E+00  0.000E+00  0.000E+00  1.05417E+03  6.732E-01  1.519E+01  7.594E-02  1.224E+00
   1    8    7     5     3    9.9265E+00  1.9221E-01   9.7343E+00  0.000E+00  0.000E+00  0.000E+00  1.04992E+03  6.676E-01  1.497E+01  5.241E-02  1.223E+00
   1    8    6     5     4    9.7343E+00  1.3577E-01   9.5985E+00  0.000E+00  0.000E+00  0.000E+00  1.04691E+03  6.637E-01  1.482E+01  3.706E-02  1.221E+00
   1    9    6     6     1    4.1456E+01  2.7904E-01   4.1177E+01  0.000E+00  0.000E+00  0.000E+00  1.04438E+03  1.651E+00  1.200E+01  6.000E-02  1.550E+00
   1   10    7     6     2    4.1177E+01  2.7863E-01   4.0898E+01  0.000E+00  0.000E+00  0.000E+00  1.03983E+03  1.644E+00  1.200E+01  6.000E-02  1.548E+00
   1   11    7     6     3    4.0898E+01  2.7823E-01   4.0620E+01  0.000E+00  0.000E+00  0.000E+00  1.03527E+03  1.637E+00  1.200E+01  6.000E-02  1.546E+00
   1   12    7     6     4    4.0620E+01  2.7783E-01   4.0342E+01  0.000E+00  0.000E+00  0.000E+00  1.03072E+03  1.630E+00  1.200E+01  6.000E-02  1.543E+00
   1   13    7     6     5    4.0342E+01  2.6015E-02   4.0316E+01  0.000E+00  0.000E+00  0.000E+00  1.02754E+03  1.627E+00  1.200E+01  2.400E-02  3.613E-01
   1   14    9     7     1    1.5000E+02  1.4089E+00   1.4859E+02  0.000E+00  0.000E+00  0.000E+00  1.03987E+03  2.288E+00  5.529E+01  5.593E-01  8.397E-01
   1   13    8     7     2    1.4859E+02  2.0479E+00   1.4654E+02  0.000E+00  0.000E+00  0.000E+00  1.03478E+03  2.278E+00  5.525E+01  6.147E-01  1.110E+00
   1   13    7     7     3    1.4654E+02  1.8064E+00   1.4474E+02  0.000E+00  0.000E+00  0.000E+00  1.02969E+03  2.268E+00  5.521E+01  5.583E-01  1.078E+00
   1   13    6     8     1    1.8505E+02  1.3075E+00   1.8375E+02  0.000E+00  0.000E+00  0.000E+00  1.02492E+03  3.044E+00  4.413E+01  4.497E-01  9.691E-01
   1   13    5     8     2    1.8375E+02  4.9494E-01   1.8325E+02  0.000E+00  0.000E+00  0.000E+00  1.01866E+03  3.038E+00  4.405E+01  4.489E-01  3.675E-01
   1   13    4     8     3    1.8325E+02 -1.4494E+00   1.8470E+02  0.000E+00  0.000E+00  0.000E+00  1.01242E+03  3.041E+00  4.409E+01  4.493E+00 -1.075E-01
   1   13    3     8     4    1.8470E+02 -3.1264E+00   1.8783E+02  0.000E+00  0.000E+00  0.000E+00  1.00618E+03  3.055E+00  4.430E+01  4.514E+00 -2.309E-01
   1   13    2     8     5    1.8783E+02 -2.3750E+00   1.9020E+02  0.000E+00  0.000E+00  0.000E+00  9.99947E+02  3.072E+00  4.454E+01  4.539E+00 -1.744E-01
   1   13    1     8     6    1.9020E+02 -1.8623E+00   1.9206E+02  0.000E+00  0.000E+00  0.000E+00  9.94960E+02  3.085E+00  4.473E+01  2.735E+00 -2.270E-01
   1    8    6     9     1    0.0000E+00  0.0000E+00   0.0000E+00  0.000E+00  0.000E+00  0.000E+00  1.07875E+03  0.000E+00  4.000E+00  0.000E+00  1.000E+00
   1    8    5     9     2    0.0000E+00  0.0000E+00   0.0000E+00  0.000E+00  0.000E+00  0.000E+00  1.07825E+03  0.000E+00  4.000E+00  0.000E+00  1.000E+00





UNSATURATED ZONE PACKAGE VOLUMETRIC BUDGET FOR  TIME STEP    30 STRESS PERIOD   40
  ------------------------------------------------------------------------------



     CUMULATIVE VOLUMES      L**3       RATES FOR THIS TIME STEP      L**3/T
     ------------------                 ------------------------

           IN:                                      IN:
           ---                                      ---
        INFILTRATION =  6222722673.2199          INFILTRATION =           0.8475

          OUT:                                     OUT:
          ----                                     ----
              UZF ET =  1293730614.4388                UZF ET =           0.7500
        UZF RECHARGE =  4529301844.1007          UZF RECHARGE =           2.8739

            IN - OUT =   399690214.6804              IN - OUT =          -2.7764

          STORAGE:                                 STORAGE:
          --------                                 --------
      STORAGE CHANGE =   399726001.8148        STORAGE CHANGE =          -2.7764

 PERCENT DISCREPANCY IS DIFFERENCE BETWEEN IN-OUT MINUS CHANGE IN STORAGE
 DIVIDED BY THE AVERAGE OF IN AND OUT TIMES 100

 PERCENT DISCREPANCY =          -0.00     PERCENT DISCREPANCY =           0.00






1
  VOLUMETRIC BUDGET FOR AGRICULTURAL FIELDS AT  END OF TIME STEP   30, STRESS PERIOD  40
  ------------------------------------------------------------------------------

     CUMULATIVE VOLUMES      L**3       RATES FOR THIS TIME STEP      L**3/T
     ------------------                 ------------------------

           IN:                                      IN:
           ---                                      ---
               AG WELLS  =  5348740096.0000                 AG WELLS  =           0.0000
      DIVERSION SEGMENTS =   786998656.0000        DIVERSION SEGMENTS =           0.0000
           GW IRRIGATION =           0.0000             GW IRRIGATION =           0.0000
           SW IRRIGATION =           0.0000             SW IRRIGATION =           0.0000
        SYSTEM LOSSES GW =           0.0000          SYSTEM LOSSES GW =           0.0000
        SYSTEM LOSSES SW =           0.0000          SYSTEM LOSSES SW =           0.0000

                TOTAL IN =  6135738880.0000                  TOTAL IN =           0.0000

          OUT:                                     OUT:
          ----                                     ----
               AG WELLS  =           0.0000                 AG WELLS  =           0.0000
      DIVERSION SEGMENTS =           0.0000        DIVERSION SEGMENTS =           0.0000
           GW IRRIGATION =  5348740096.0000             GW IRRIGATION =           0.0000
           SW IRRIGATION =   787013952.0000             SW IRRIGATION =           0.0000
        SYSTEM LOSSES GW =           0.0000          SYSTEM LOSSES GW =           0.0000
        SYSTEM LOSSES SW =           0.0000          SYSTEM LOSSES SW =           0.0000

               TOTAL OUT =  6135754240.0000                 TOTAL OUT =           0.0000

                IN - OUT =      -15360.0000                  IN - OUT =           0.0000

     PERCENT DISCREPANCY =          -0.00         PERCENT DISCREPANCY =           0.00



1
  VOLUMETRIC BUDGET FOR ENTIRE MODEL AT END OF TIME STEP   30, STRESS PERIOD  40
  ------------------------------------------------------------------------------

     CUMULATIVE VOLUMES      L**3       RATES FOR THIS TIME STEP      L**3/T
     ------------------                 ------------------------

           IN:                                      IN:
           ---                                      ---
             STORAGE     =  5304475648.0000               STORAGE     =           0.8185
       CONSTANT HEAD     =           0.0000         CONSTANT HEAD     =           0.0000
     HEAD DEP BOUNDS     =    29671720.0000       HEAD DEP BOUNDS     =           0.2907
      STREAM LEAKAGE     =  1240737280.0000        STREAM LEAKAGE     =          13.4987
        UZF RECHARGE     =  4529299456.0000          UZF RECHARGE     =           2.8739
               GW ET     =           0.0000                 GW ET     =           0.0000
     SURFACE LEAKAGE     =           0.0000       SURFACE LEAKAGE     =           0.0000
           AG WELLS      =           0.0000             AG WELLS      =           0.0000

                TOTAL IN = 11104184320.0000                  TOTAL IN =          17.4817

          OUT:                                     OUT:
          ----                                     ----
             STORAGE     =  4735408640.0000               STORAGE     =           8.3761
       CONSTANT HEAD     =           0.0000         CONSTANT HEAD     =           0.0000
     HEAD DEP BOUNDS     =    29491096.0000       HEAD DEP BOUNDS     =           0.2903
      STREAM LEAKAGE     =   990430464.0000        STREAM LEAKAGE     =           8.8132
        UZF RECHARGE     =           0.0000          UZF RECHARGE     =           0.0000
               GW ET     =           0.0000                 GW ET     =           0.0000
     SURFACE LEAKAGE     =           0.0000       SURFACE LEAKAGE     =           0.0000
           AG WELLS      =  5348740096.0000             AG WELLS      =           0.0000

               TOTAL OUT = 11104070656.0000                 TOTAL OUT =          17.4796

                IN - OUT =      113664.0000                  IN - OUT =       2.1152E-03

     PERCENT DISCREPANCY =           0.00         PERCENT DISCREPANCY =           0.01






         TIME SUMMARY AT END OF TIME STEP   30 IN STRESS PERIOD   40
                    SECONDS     MINUTES      HOURS       DAYS        YEARS
                    -----------------------------------------------------------
   TIME STEP LENGTH  87667.      1461.1      24.352      1.0147     2.77799E-03
 STRESS PERIOD TIME 2.63000E+06  43833.      730.56      30.440     8.33397E-02
         TOTAL TIME 1.02656E+08 1.71093E+06  28515.      1188.1      3.2530    
1
1
                            STRESS PERIOD NO.   41, LENGTH =   2630000.    
                            -----------------------------------------------

                              NUMBER OF TIME STEPS =    30

                               MULTIPLIER FOR DELT =     1.000

                            INITIAL TIME STEP SIZE =   87666.66    

 REUSING NON-PARAMETER GHB CELLS FROM LAST STRESS PERIOD

      2 GHB CELLS

 REUSING STREAM SEGMENT DATA FROM LAST STRESS PERIOD



            AREAL INFILTRATION RATE
 READING ON UNIT   19 WITH FORMAT: (FREE)              

            1           2           3           4           5           6           7           8           9          10
 ........................................................................................................................
   1   1.0000E-10  2.0000E-10   0.000       0.000       0.000       0.000       0.000       0.000       0.000       0.000    
   2   2.0000E-10  1.0000E-10  2.0000E-10   0.000       0.000      8.0000E-10  8.0000E-10  5.0000E-10   0.000       0.000    
   3    0.000      5.0000E-10  1.0000E-10  1.0000E-10  8.0000E-10  8.0000E-10  5.0000E-10  5.0000E-10   0.000       0.000    
   4   8.0000E-10  5.0000E-10  1.0000E-10  1.0000E-10  1.0000E-10  1.0000E-10  1.0000E-10  1.0000E-10  2.0000E-10   0.000    
   5   8.0000E-10  5.0000E-10  1.0000E-10  1.0000E-10  1.0000E-10  1.0000E-10  1.0000E-10  1.0000E-10  1.0000E-10  1.0000E-10
   6   8.0000E-10  5.0000E-10  5.0000E-10  2.0000E-10  2.0000E-10  1.0000E-10  1.0000E-10  1.0000E-10  1.0000E-10  5.0000E-10
   7   8.0000E-10  5.0000E-10  5.0000E-10  2.0000E-10  2.0000E-10  1.0000E-10  1.0000E-10  2.0000E-10  2.0000E-10   0.000    
   8    0.000      5.0000E-10  5.0000E-10  2.0000E-10  2.0000E-10  1.0000E-10  1.0000E-10  2.0000E-10  5.0000E-10   0.000    
   9    0.000      5.0000E-10  5.0000E-10  2.0000E-10  2.0000E-10  1.0000E-10  1.0000E-10  2.0000E-10  5.0000E-10   0.000    
  10    0.000      5.0000E-10  5.0000E-10  2.0000E-10  2.0000E-10  1.0000E-10  1.0000E-10  2.0000E-10  5.0000E-10  8.0000E-10
  11    0.000      1.0000E-10  1.0000E-10  1.0000E-10  1.0000E-10  1.0000E-10  1.0000E-10  2.0000E-10  5.0000E-10   0.000    
  12   1.0000E-10  1.0000E-10  1.0000E-10  1.0000E-10  1.0000E-10  1.0000E-10  1.0000E-10  1.0000E-10  2.0000E-10   0.000    
  13   1.0000E-10  1.0000E-10  2.0000E-10  2.0000E-10  2.0000E-10  2.0000E-10  2.0000E-10  1.0000E-10  1.0000E-10   0.000    
  14    0.000      2.0000E-10  5.0000E-10  5.0000E-10  5.0000E-10  5.0000E-10  5.0000E-10  2.0000E-10  1.0000E-10   0.000    
  15    0.000       0.000      8.0000E-10  8.0000E-10  8.0000E-10  8.0000E-10   0.000       0.000       0.000       0.000    

                  ET RATE =  2.500000E-08

 USING ET EXTINCTION DEPTH FROM PREVIOUS STRESS PERIOD. CURRENT PERIOD IS:      41

 USING EXTINCTION WATER CONTENT FROM PREVIOUS STRESS PERIOD. CURRENT PERIOD IS:      41

 USING AIR ENTRY PRESSURE FROM PREVIOUS STRESS PERIOD. CURRENT PERIOD IS:      41

 USING ROOT PRESSURE HEAD FROM PREVIOUS STRESS PERIOD. CURRENT PERIOD IS:      41

 USING ROOT ACTIVITY FROM PREVIOUS STRESS PERIOD. CURRENT PERIOD IS:      41

 PROCESSING AG STRESS PERIOD DATA

 READING AG STRESS PERIOD DATA

 READING IRRIGATION SEGMENT

 READING IRRIGATION WELL

 READING SUPPLEMENTAL WELL

 END PROCESSING AG STRESS PERIOD DATA OPTIONS
 
 SOLVING FOR HEAD 
                                                   Max.-Head-Change                         Max.-Flux-Residual
  Residual-Control   Outer-Iter.   Inner-Iter.     Column Row Layer    Maximum-Head-Change  Column Row Layer    Maximum-Flux-Residual          L2-NORM 
          0                 1           2             4    3     1       0.4848916827E-02       4    3    1         0.2531838250E+00      0.1136486960E+01
          0                 2           2             4    3     1      -0.4716672569E-03       4    3    1        -0.2531840651E-01      0.1177721535E+00
          0                 3           1             5    8     1       0.8532610450E-04       5    8    1         0.4572357761E-02      0.1104234737E-01

    ------------------------------------------------
       NWT REQUIRED            3 OUTER ITERATIONS 
       AND A TOTAL OF          5 INNER ITERATIONS.
    ------------------------------------------------

 NO OUTPUT CONTROL FOR STRESS PERIOD   41   TIME STEP    1
 
 SOLVING FOR HEAD 
                                                   Max.-Head-Change                         Max.-Flux-Residual
  Residual-Control   Outer-Iter.   Inner-Iter.     Column Row Layer    Maximum-Head-Change  Column Row Layer    Maximum-Flux-Residual          L2-NORM 
          0                 1           2             4    3     1       0.4823589325E-02       4    3    1         0.2518440993E+00      0.1132082272E+01
          0                 2           2             4    3     1      -0.4692035422E-03       4    3    1        -0.2518443349E-01      0.1175622929E+00
          0                 3           1             5    8     1       0.8630237607E-04       5    8    1         0.4623343416E-02      0.1116926185E-01

    ------------------------------------------------
       NWT REQUIRED            3 OUTER ITERATIONS 
       AND A TOTAL OF          5 INNER ITERATIONS.
    ------------------------------------------------

 NO OUTPUT CONTROL FOR STRESS PERIOD   41   TIME STEP    2
 
 SOLVING FOR HEAD 
                                                   Max.-Head-Change                         Max.-Flux-Residual
  Residual-Control   Outer-Iter.   Inner-Iter.     Column Row Layer    Maximum-Head-Change  Column Row Layer    Maximum-Flux-Residual          L2-NORM 
          0                 1           2             4    3     1       0.4798761322E-02       4    3    1         0.2505309017E+00      0.1127867154E+01
          0                 2           2             4    3     1      -0.4667884178E-03       4    3    1        -0.2505311335E-01      0.1173744890E+00
          0                 3           1             5    8     1       0.8724965964E-04       5    8    1         0.4672808047E-02      0.1129796909E-01

    ------------------------------------------------
       NWT REQUIRED            3 OUTER ITERATIONS 
       AND A TOTAL OF          5 INNER ITERATIONS.
    ------------------------------------------------

 NO OUTPUT CONTROL FOR STRESS PERIOD   41   TIME STEP    3
 
 SOLVING FOR HEAD 
                                                   Max.-Head-Change                         Max.-Flux-Residual
  Residual-Control   Outer-Iter.   Inner-Iter.     Column Row Layer    Maximum-Head-Change  Column Row Layer    Maximum-Flux-Residual          L2-NORM 
          0                 1           2             4    3     1       0.4721563967E-02       4    3    1         0.2464579493E+00      0.1118374217E+01
          0                 2           2             4    3     1      -0.4592791706E-03       4    3    1        -0.2464581678E-01      0.1166927923E+00
          0                 3           1             5    8     1       0.8815467669E-04       5    8    1         0.4720133116E-02      0.1140154315E-01

    ------------------------------------------------
       NWT REQUIRED            3 OUTER ITERATIONS 
       AND A TOTAL OF          5 INNER ITERATIONS.
    ------------------------------------------------

 NO OUTPUT CONTROL FOR STRESS PERIOD   41   TIME STEP    4
 
 SOLVING FOR HEAD 
                                                   Max.-Head-Change                         Max.-Flux-Residual
  Residual-Control   Outer-Iter.   Inner-Iter.     Column Row Layer    Maximum-Head-Change  Column Row Layer    Maximum-Flux-Residual          L2-NORM 
          0                 1           2             6    4     1       0.4594540050E-02       6    4    1         0.2401197164E+00      0.1094187544E+01
          0                 2           2             6    4     1      -0.4469205917E-03       6    4    1        -0.2401199350E-01      0.1144620858E+00
          0                 3           1             5    8     1       0.8885077137E-04       5    8    1         0.4757418485E-02      0.1141226061E-01

    ------------------------------------------------
       NWT REQUIRED            3 OUTER ITERATIONS 
       AND A TOTAL OF          5 INNER ITERATIONS.
    ------------------------------------------------

 NO OUTPUT CONTROL FOR STRESS PERIOD   41   TIME STEP    5
 
 SOLVING FOR HEAD 
                                                   Max.-Head-Change                         Max.-Flux-Residual
  Residual-Control   Outer-Iter.   Inner-Iter.     Column Row Layer    Maximum-Head-Change  Column Row Layer    Maximum-Flux-Residual          L2-NORM 
          0                 1           2             6    4     1       0.4566544060E-02       6    4    1         0.2386360639E+00      0.1086356008E+01
          0                 2           2             6    4     1      -0.4441972878E-03       6    4    1        -0.2386362783E-01      0.1139399260E+00
          0                 3           1             5    8     1       0.8953592931E-04       5    8    1         0.4792807459E-02      0.1151508032E-01

    ------------------------------------------------
       NWT REQUIRED            3 OUTER ITERATIONS 
       AND A TOTAL OF          5 INNER ITERATIONS.
    ------------------------------------------------

 NO OUTPUT CONTROL FOR STRESS PERIOD   41   TIME STEP    6
 
 SOLVING FOR HEAD 
                                                   Max.-Head-Change                         Max.-Flux-Residual
  Residual-Control   Outer-Iter.   Inner-Iter.     Column Row Layer    Maximum-Head-Change  Column Row Layer    Maximum-Flux-Residual          L2-NORM 
          0                 1           2             6    4     1       0.4539034860E-02       6    4    1         0.2371785277E+00      0.1079397728E+01
          0                 2           2             6    4     1      -0.4415213367E-03       6    4    1        -0.2371787381E-01      0.1134997932E+00
          0                 3           1             5    8     1       0.9021692053E-04       5    8    1         0.4828032336E-02      0.1162111831E-01

    ------------------------------------------------
       NWT REQUIRED            3 OUTER ITERATIONS 
       AND A TOTAL OF          5 INNER ITERATIONS.
    ------------------------------------------------

 NO OUTPUT CONTROL FOR STRESS PERIOD   41   TIME STEP    7
 
 SOLVING FOR HEAD 
                                                   Max.-Head-Change                         Max.-Flux-Residual
  Residual-Control   Outer-Iter.   Inner-Iter.     Column Row Layer    Maximum-Head-Change  Column Row Layer    Maximum-Flux-Residual          L2-NORM 
          0                 1           2             6    4     1       0.4512107622E-02       6    4    1         0.2357522124E+00      0.1073172464E+01
          0                 2           2             6    4     1      -0.4389019956E-03       6    4    1        -0.2357524188E-01      0.1131315225E+00
          0                 3           1             5    8     1       0.9087859818E-04       5    8    1         0.4862249936E-02      0.1173043698E-01

    ------------------------------------------------
       NWT REQUIRED            3 OUTER ITERATIONS 
       AND A TOTAL OF          5 INNER ITERATIONS.
    ------------------------------------------------

 NO OUTPUT CONTROL FOR STRESS PERIOD   41   TIME STEP    8
 
 SOLVING FOR HEAD 
                                                   Max.-Head-Change                         Max.-Flux-Residual
  Residual-Control   Outer-Iter.   Inner-Iter.     Column Row Layer    Maximum-Head-Change  Column Row Layer    Maximum-Flux-Residual          L2-NORM 
          0                 1           2             6    4     1       0.4485632786E-02       6    4    1         0.2343500892E+00      0.1067579894E+01
          0                 2           2             6    4     1      -0.4363266629E-03       6    4    1        -0.2343502919E-01      0.1128216951E+00
          0                 3           1             5    8     1       0.9153616600E-04       5    8    1         0.4896299698E-02      0.1184102279E-01

    ------------------------------------------------
       NWT REQUIRED            3 OUTER ITERATIONS 
       AND A TOTAL OF          5 INNER ITERATIONS.
    ------------------------------------------------

 NO OUTPUT CONTROL FOR STRESS PERIOD   41   TIME STEP    9
 
 SOLVING FOR HEAD 
                                                   Max.-Head-Change                         Max.-Flux-Residual
  Residual-Control   Outer-Iter.   Inner-Iter.     Column Row Layer    Maximum-Head-Change  Column Row Layer    Maximum-Flux-Residual          L2-NORM 
          0                 1           2             6    4     1       0.4459707200E-02       6    4    1         0.2329774042E+00      0.1062514266E+01
          0                 2           2             6    4     1      -0.4338047578E-03       6    4    1        -0.2329776032E-01      0.1125620391E+00
          0                 3           1             5    8     1       0.9218201061E-04       5    8    1         0.4929752524E-02      0.1195342152E-01

    ------------------------------------------------
       NWT REQUIRED            3 OUTER ITERATIONS 
       AND A TOTAL OF          5 INNER ITERATIONS.
    ------------------------------------------------

 NO OUTPUT CONTROL FOR STRESS PERIOD   41   TIME STEP   10
 
 SOLVING FOR HEAD 
                                                   Max.-Head-Change                         Max.-Flux-Residual
  Residual-Control   Outer-Iter.   Inner-Iter.     Column Row Layer    Maximum-Head-Change  Column Row Layer    Maximum-Flux-Residual          L2-NORM 
          0                 1           2             6    4     1       0.4434200422E-02       6    4    1         0.2316272150E+00      0.1057901884E+01
          0                 2           2             6    4     1      -0.4313235927E-03       6    4    1        -0.2316274103E-01      0.1123441432E+00
          0                 3           1             5    8     1       0.9281568482E-04       5    8    1         0.4962593493E-02      0.1206605876E-01

    ------------------------------------------------
       NWT REQUIRED            3 OUTER ITERATIONS 
       AND A TOTAL OF          5 INNER ITERATIONS.
    ------------------------------------------------

 NO OUTPUT CONTROL FOR STRESS PERIOD   41   TIME STEP   11
 
 SOLVING FOR HEAD 
                                                   Max.-Head-Change                         Max.-Flux-Residual
  Residual-Control   Outer-Iter.   Inner-Iter.     Column Row Layer    Maximum-Head-Change  Column Row Layer    Maximum-Flux-Residual          L2-NORM 
          0                 1           2             6    4     1       0.4409213038E-02       6    4    1         0.2303047224E+00      0.1053674367E+01
          0                 2           2             6    4     1      -0.4288929529E-03       6    4    1        -0.2303049145E-01      0.1121619507E+00
          0                 3           1             5    8     1       0.9344489167E-04       5    8    1         0.4995240805E-02      0.1217895387E-01

    ------------------------------------------------
       NWT REQUIRED            3 OUTER ITERATIONS 
       AND A TOTAL OF          5 INNER ITERATIONS.
    ------------------------------------------------

 NO OUTPUT CONTROL FOR STRESS PERIOD   41   TIME STEP   12
 
 SOLVING FOR HEAD 
                                                   Max.-Head-Change                         Max.-Flux-Residual
  Residual-Control   Outer-Iter.   Inner-Iter.     Column Row Layer    Maximum-Head-Change  Column Row Layer    Maximum-Flux-Residual          L2-NORM 
          0                 1           2             6    4     1       0.4384726985E-02       6    4    1         0.2290091596E+00      0.1049771648E+01
          0                 2           2             6    4     1      -0.4265110791E-03       6    4    1        -0.2290093484E-01      0.1120089972E+00
          0                 3           1             5    8     1       0.9405403762E-04       5    8    1         0.5026835437E-02      0.1229157818E-01

    ------------------------------------------------
       NWT REQUIRED            3 OUTER ITERATIONS 
       AND A TOTAL OF          5 INNER ITERATIONS.
    ------------------------------------------------

 NO OUTPUT CONTROL FOR STRESS PERIOD   41   TIME STEP   13
 
 SOLVING FOR HEAD 
                                                   Max.-Head-Change                         Max.-Flux-Residual
  Residual-Control   Outer-Iter.   Inner-Iter.     Column Row Layer    Maximum-Head-Change  Column Row Layer    Maximum-Flux-Residual          L2-NORM 
          0                 1           2             6    4     1       0.4360619616E-02       6    4    1         0.2277336078E+00      0.1046154994E+01
          0                 2           2             6    4     1      -0.4241660424E-03       6    4    1        -0.2277337933E-01      0.1118819587E+00
          0                 3           1             5    8     1       0.9465919992E-04       5    8    1         0.5058254359E-02      0.1240361225E-01

    ------------------------------------------------
       NWT REQUIRED            3 OUTER ITERATIONS 
       AND A TOTAL OF          5 INNER ITERATIONS.
    ------------------------------------------------

 NO OUTPUT CONTROL FOR STRESS PERIOD   41   TIME STEP   14
 
 SOLVING FOR HEAD 
                                                   Max.-Head-Change                         Max.-Flux-Residual
  Residual-Control   Outer-Iter.   Inner-Iter.     Column Row Layer    Maximum-Head-Change  Column Row Layer    Maximum-Flux-Residual          L2-NORM 
          0                 1           2             6    4     1       0.4336990742E-02       6    4    1         0.2264836725E+00      0.1042780873E+01
          0                 2           2             6    4     1      -0.4218675529E-03       6    4    1        -0.2264838549E-01      0.1117732510E+00
          0                 3           1             5    8     1       0.9524638437E-04       5    8    1         0.5089258604E-02      0.1250776701E-01

    ------------------------------------------------
       NWT REQUIRED            3 OUTER ITERATIONS 
       AND A TOTAL OF          5 INNER ITERATIONS.
    ------------------------------------------------

 NO OUTPUT CONTROL FOR STRESS PERIOD   41   TIME STEP   15
 
 SOLVING FOR HEAD 
                                                   Max.-Head-Change                         Max.-Flux-Residual
  Residual-Control   Outer-Iter.   Inner-Iter.     Column Row Layer    Maximum-Head-Change  Column Row Layer    Maximum-Flux-Residual          L2-NORM 
          0                 1           2             6    4     1       0.4313826303E-02       6    4    1         0.2252585466E+00      0.1039616179E+01
          0                 2           2             6    4     1      -0.4196142363E-03       6    4    1        -0.2252587259E-01      0.1116588386E+00
          0                 3           1             5    8     1       0.9583549004E-04       5    8    1         0.5119379128E-02      0.1262227936E-01

    ------------------------------------------------
       NWT REQUIRED            3 OUTER ITERATIONS 
       AND A TOTAL OF          5 INNER ITERATIONS.
    ------------------------------------------------

 NO OUTPUT CONTROL FOR STRESS PERIOD   41   TIME STEP   16
 
 SOLVING FOR HEAD 
                                                   Max.-Head-Change                         Max.-Flux-Residual
  Residual-Control   Outer-Iter.   Inner-Iter.     Column Row Layer    Maximum-Head-Change  Column Row Layer    Maximum-Flux-Residual          L2-NORM 
          0                 1           2             6    4     1       0.4291002294E-02       6    4    1         0.2240515185E+00      0.1036631162E+01
          0                 2           2             6    4     1      -0.4173940422E-03       5    8    1         0.2250639542E-01      0.1116077770E+00
          0                 3           1             5    8     1       0.9640662911E-04       5    8    1         0.5148896044E-02      0.1273548741E-01

    ------------------------------------------------
       NWT REQUIRED            3 OUTER ITERATIONS 
       AND A TOTAL OF          5 INNER ITERATIONS.
    ------------------------------------------------

 NO OUTPUT CONTROL FOR STRESS PERIOD   41   TIME STEP   17
 
 SOLVING FOR HEAD 
                                                   Max.-Head-Change                         Max.-Flux-Residual
  Residual-Control   Outer-Iter.   Inner-Iter.     Column Row Layer    Maximum-Head-Change  Column Row Layer    Maximum-Flux-Residual          L2-NORM 
          0                 1           2             6    4     1       0.4268620401E-02       6    4    1         0.2228681235E+00      0.1033808280E+01
          0                 2           2             6    4     1      -0.4152168524E-03       5    8    1         0.2262175716E-01      0.1115458054E+00
          0                 3           1             5    8     1       0.9696383187E-04       5    8    1         0.5177919286E-02      0.1284133048E-01

    ------------------------------------------------
       NWT REQUIRED            3 OUTER ITERATIONS 
       AND A TOTAL OF          5 INNER ITERATIONS.
    ------------------------------------------------

 NO OUTPUT CONTROL FOR STRESS PERIOD   41   TIME STEP   18
 
 SOLVING FOR HEAD 
                                                   Max.-Head-Change                         Max.-Flux-Residual
  Residual-Control   Outer-Iter.   Inner-Iter.     Column Row Layer    Maximum-Head-Change  Column Row Layer    Maximum-Flux-Residual          L2-NORM 
          0                 1           2             6    4     1       0.4246671430E-02       6    4    1         0.2217076516E+00      0.1031128742E+01
          0                 2           2             5    8     1       0.4131157657E-03       5    8    1         0.2273439345E-01      0.1114955921E+00
          0                 3           1             5    8     1       0.9750765469E-04       5    8    1         0.5206247935E-02      0.1294592218E-01

    ------------------------------------------------
       NWT REQUIRED            3 OUTER ITERATIONS 
       AND A TOTAL OF          5 INNER ITERATIONS.
    ------------------------------------------------

 NO OUTPUT CONTROL FOR STRESS PERIOD   41   TIME STEP   19
 
 SOLVING FOR HEAD 
                                                   Max.-Head-Change                         Max.-Flux-Residual
  Residual-Control   Outer-Iter.   Inner-Iter.     Column Row Layer    Maximum-Head-Change  Column Row Layer    Maximum-Flux-Residual          L2-NORM 
          0                 1           2             6    4     1       0.4225030644E-02       6    4    1         0.2205636437E+00      0.1028561806E+01
          0                 2           2             5    8     1       0.4152588953E-03       5    8    1         0.2284442323E-01      0.1114540302E+00
          0                 3           1             5    8     1       0.9803929498E-04       5    8    1         0.5233934747E-02      0.1304887778E-01

    ------------------------------------------------
       NWT REQUIRED            3 OUTER ITERATIONS 
       AND A TOTAL OF          5 INNER ITERATIONS.
    ------------------------------------------------

 NO OUTPUT CONTROL FOR STRESS PERIOD   41   TIME STEP   20
 
 SOLVING FOR HEAD 
                                                   Max.-Head-Change                         Max.-Flux-Residual
  Residual-Control   Outer-Iter.   Inner-Iter.     Column Row Layer    Maximum-Head-Change  Column Row Layer    Maximum-Flux-Residual          L2-NORM 
          0                 1           2             6    4     1       0.4203803322E-02       6    4    1         0.2194415972E+00      0.1026110509E+01
          0                 2           2             5    8     1       0.4173511776E-03       5    8    1         0.2295191107E-01      0.1114206432E+00
          0                 3           1             5    8     1       0.9855803654E-04       5    8    1         0.5260958506E-02      0.1314994860E-01

    ------------------------------------------------
       NWT REQUIRED            3 OUTER ITERATIONS 
       AND A TOTAL OF          5 INNER ITERATIONS.
    ------------------------------------------------

 NO OUTPUT CONTROL FOR STRESS PERIOD   41   TIME STEP   21
 
 SOLVING FOR HEAD 
                                                   Max.-Head-Change                         Max.-Flux-Residual
  Residual-Control   Outer-Iter.   Inner-Iter.     Column Row Layer    Maximum-Head-Change  Column Row Layer    Maximum-Flux-Residual          L2-NORM 
          0                 1           2             6    4     1       0.4182866072E-02       6    4    1         0.2183350056E+00      0.1023745717E+01
          0                 2           2             5    8     1       0.4194284861E-03       5    8    1         0.2305872006E-01      0.1113935883E+00
          0                 3           1             5    8     1       0.9907257461E-04       5    8    1         0.5287780181E-02      0.1324952439E-01

    ------------------------------------------------
       NWT REQUIRED            3 OUTER ITERATIONS 
       AND A TOTAL OF          5 INNER ITERATIONS.
    ------------------------------------------------

 NO OUTPUT CONTROL FOR STRESS PERIOD   41   TIME STEP   22
 
 SOLVING FOR HEAD 
                                                   Max.-Head-Change                         Max.-Flux-Residual
  Residual-Control   Outer-Iter.   Inner-Iter.     Column Row Layer    Maximum-Head-Change  Column Row Layer    Maximum-Flux-Residual          L2-NORM 
          0                 1           2             6    4     1       0.4162436331E-02       6    4    1         0.2172554193E+00      0.1021465080E+01
          0                 2           2             5    8     1       0.4214230898E-03       5    8    1         0.2316117762E-01      0.1113717050E+00
          0                 3           1             5    8     1       0.9956718020E-04       5    8    1         0.5313543649E-02      0.1334709271E-01

    ------------------------------------------------
       NWT REQUIRED            3 OUTER ITERATIONS 
       AND A TOTAL OF          5 INNER ITERATIONS.
    ------------------------------------------------

 NO OUTPUT CONTROL FOR STRESS PERIOD   41   TIME STEP   23
 
 SOLVING FOR HEAD 
                                                   Max.-Head-Change                         Max.-Flux-Residual
  Residual-Control   Outer-Iter.   Inner-Iter.     Column Row Layer    Maximum-Head-Change  Column Row Layer    Maximum-Flux-Residual          L2-NORM 
          0                 1           2             6    4     1       0.4142278194E-02       6    4    1         0.2161901811E+00      0.1019263553E+01
          0                 2           2             5    8     1       0.4234050446E-03       5    8    1         0.2326311539E-01      0.1113554300E+00
          0                 3           1             5    8     1       0.1000579995E-03       5    8    1         0.5339131519E-02      0.1344317492E-01
          0                 4           1             5    8     1       0.2366830629E-04       5    8    1         0.1271823873E-02      0.2787474540E-02

    ------------------------------------------------
       NWT REQUIRED            4 OUTER ITERATIONS 
       AND A TOTAL OF          6 INNER ITERATIONS.
    ------------------------------------------------

 NO OUTPUT CONTROL FOR STRESS PERIOD   41   TIME STEP   24
 
 SOLVING FOR HEAD 
                                                   Max.-Head-Change                         Max.-Flux-Residual
  Residual-Control   Outer-Iter.   Inner-Iter.     Column Row Layer    Maximum-Head-Change  Column Row Layer    Maximum-Flux-Residual          L2-NORM 
          0                 1           2             6    4     1       0.4122392970E-02       6    4    1         0.2151394461E+00      0.1017140008E+01
          0                 2           2             5    8     1       0.4251330963E-03       5    8    1         0.2335145506E-01      0.1113375965E+00
          0                 3           1             5    8     1       0.1004890334E-03       5    8    1         0.5361494159E-02      0.1353397982E-01
          0                 4           1             5    8     1       0.2377555165E-04       5    8    1         0.1277379088E-02      0.2815735065E-02

    ------------------------------------------------
       NWT REQUIRED            4 OUTER ITERATIONS 
       AND A TOTAL OF          6 INNER ITERATIONS.
    ------------------------------------------------

 NO OUTPUT CONTROL FOR STRESS PERIOD   41   TIME STEP   25
 
 SOLVING FOR HEAD 
                                                   Max.-Head-Change                         Max.-Flux-Residual
  Residual-Control   Outer-Iter.   Inner-Iter.     Column Row Layer    Maximum-Head-Change  Column Row Layer    Maximum-Flux-Residual          L2-NORM 
          0                 1           2             6    4     1       0.4102992284E-02       6    4    1         0.2141144005E+00      0.1015077139E+01
          0                 2           2             5    8     1       0.4268644391E-03       5    8    1         0.2344010311E-01      0.1113239327E+00
          0                 3           1             5    8     1       0.1009200990E-03       5    8    1         0.5383885790E-02      0.1362345396E-01
          0                 4           1             5    8     1       0.2388262894E-04       5    8    1         0.1282931940E-02      0.2843445978E-02

    ------------------------------------------------
       NWT REQUIRED            4 OUTER ITERATIONS 
       AND A TOTAL OF          6 INNER ITERATIONS.
    ------------------------------------------------

 NO OUTPUT CONTROL FOR STRESS PERIOD   41   TIME STEP   26
 
 SOLVING FOR HEAD 
                                                   Max.-Head-Change                         Max.-Flux-Residual
  Residual-Control   Outer-Iter.   Inner-Iter.     Column Row Layer    Maximum-Head-Change  Column Row Layer    Maximum-Flux-Residual          L2-NORM 
          0                 1           2             6    4     1       0.4082794326E-02       6    4    1         0.2131025116E+00      0.1009085730E+01
          0                 2           2             5    8     1       0.4284037702E-03       5    8    1         0.2351551525E-01      0.1109340705E+00
          0                 3           1             5    8     1       0.1013057650E-03       5    8    1         0.5404044089E-02      0.1369380392E-01
          0                 4           1             5    8     1       0.2397896059E-04       5    8    1         0.1287899942E-02      0.2869732946E-02

    ------------------------------------------------
       NWT REQUIRED            4 OUTER ITERATIONS 
       AND A TOTAL OF          6 INNER ITERATIONS.
    ------------------------------------------------

 NO OUTPUT CONTROL FOR STRESS PERIOD   41   TIME STEP   27
 
 SOLVING FOR HEAD 
                                                   Max.-Head-Change                         Max.-Flux-Residual
  Residual-Control   Outer-Iter.   Inner-Iter.     Column Row Layer    Maximum-Head-Change  Column Row Layer    Maximum-Flux-Residual          L2-NORM 
          0                 1           2             6    4     1       0.4059907314E-02       6    4    1         0.2120552673E+00      0.1006244020E+01
          0                 2           2             5    8     1       0.4295783632E-03       5    8    1         0.2356545517E-01      0.1107460081E+00
          0                 3           1             5    8     1       0.1016056347E-03       5    8    1         0.5419985207E-02      0.1376268197E-01
          0                 4           1             5    8     1       0.2405508976E-04       5    8    1         0.1291763500E-02      0.2893892077E-02

    ------------------------------------------------
       NWT REQUIRED            4 OUTER ITERATIONS 
       AND A TOTAL OF          6 INNER ITERATIONS.
    ------------------------------------------------

 NO OUTPUT CONTROL FOR STRESS PERIOD   41   TIME STEP   28
 
 SOLVING FOR HEAD 
                                                   Max.-Head-Change                         Max.-Flux-Residual
  Residual-Control   Outer-Iter.   Inner-Iter.     Column Row Layer    Maximum-Head-Change  Column Row Layer    Maximum-Flux-Residual          L2-NORM 
          0                 1           2             6    4     1       0.4037543990E-02       6    4    1         0.2108626133E+00      0.1001418210E+01
          0                 2           2             5    8     1       0.4307559856E-03       5    8    1         0.2362467214E-01      0.1104753589E+00
          0                 3           1             5    8     1       0.1019051610E-03       5    8    1         0.5435321680E-02      0.1383026088E-01
          0                 4           1             5    8     1       0.2413089241E-04       5    8    1         0.1295644335E-02      0.2917461887E-02

    ------------------------------------------------
       NWT REQUIRED            4 OUTER ITERATIONS 
       AND A TOTAL OF          6 INNER ITERATIONS.
    ------------------------------------------------

 NO OUTPUT CONTROL FOR STRESS PERIOD   41   TIME STEP   29
 
 SOLVING FOR HEAD 
                                                   Max.-Head-Change                         Max.-Flux-Residual
  Residual-Control   Outer-Iter.   Inner-Iter.     Column Row Layer    Maximum-Head-Change  Column Row Layer    Maximum-Flux-Residual          L2-NORM 
          0                 1           2             6    4     1       0.4015787815E-02       6    4    1         0.2097030962E+00      0.9970941375E+00
          0                 2           2             5    8     1       0.4319361138E-03       5    8    1         0.2368416082E-01      0.1102475730E+00
          0                 3           1             5    8     1       0.1022046185E-03       5    8    1         0.5450677180E-02      0.1389835810E-01
          0                 4           1             5    8     1       0.2420652349E-04       5    8    1         0.1299521909E-02      0.2940560771E-02

    ------------------------------------------------
       NWT REQUIRED            4 OUTER ITERATIONS 
       AND A TOTAL OF          6 INNER ITERATIONS.
    ------------------------------------------------

 NO OUTPUT CONTROL FOR STRESS PERIOD   41   TIME STEP   30



 STREAM LISTING     PERIOD     41   STEP       30

 LAYER ROW COL. STREAM  RCH.  FLOW INTO     FLOW TO   FLOW OUT OF   OVRLND.     DIRECT     STREAM       STREAM     STREAM     STREAM   STREAMBED  STREAMBED
                SEG.NO.  NO.  STRM. RCH.    AQUIFER    STRM. RCH.    RUNOFF     PRECIP       ET          HEAD       DEPTH      WIDTH   CONDCTNC.   GRADIENT

   1    1    1     1     1    2.3624E+01  2.3872E-01   2.3386E+01  0.000E+00  0.000E+00  0.000E+00  1.09421E+03  1.157E+00  1.276E+01  5.742E-02  1.386E+00
   1    2    2     1     2    2.3386E+01  3.6908E-01   2.3016E+01  0.000E+00  0.000E+00  0.000E+00  1.08921E+03  1.153E+00  1.270E+01  8.888E-02  1.384E+00
   1    3    3     1     3    2.3016E+01  3.1417E-01   2.2702E+01  0.000E+00  0.000E+00  0.000E+00  1.08357E+03  1.147E+00  1.263E+01  7.575E-02  1.382E+00
   1    3    4     1     4    2.2702E+01  2.8881E-01   2.2414E+01  0.000E+00  0.000E+00  0.000E+00  1.07855E+03  1.143E+00  1.256E+01  6.972E-02  1.381E+00
   1    4    5     2     1    2.0414E+01  3.1702E-01   2.0096E+01  0.000E+00  0.000E+00  0.000E+00  1.07300E+03  1.064E+00  1.200E+01  7.800E-02  1.355E+00
   1    5    6     2     2    2.0096E+01  2.4333E-01   1.9853E+01  0.000E+00  0.000E+00  0.000E+00  1.06756E+03  1.055E+00  1.200E+01  6.000E-02  1.352E+00
   1    6    6     2     3    1.9853E+01  2.4286E-01   1.9610E+01  0.000E+00  0.000E+00  0.000E+00  1.06284E+03  1.048E+00  1.200E+01  6.000E-02  1.349E+00
   1    7    6     2     4    1.9610E+01  2.4240E-01   1.9368E+01  0.000E+00  0.000E+00  0.000E+00  1.05812E+03  1.040E+00  1.200E+01  6.000E-02  1.347E+00
   1    8    6     2     5    1.9368E+01  2.4193E-01   1.9126E+01  0.000E+00  0.000E+00  0.000E+00  1.05339E+03  1.032E+00  1.200E+01  6.000E-02  1.344E+00
   1    3    5     3     1    2.0000E+00  2.8252E-01   1.7175E+00  0.000E+00  0.000E+00  0.000E+00  1.07555E+03  1.909E+00  9.636E+00  7.227E-02  1.955E+00
   1    3    6     3     2    1.7175E+00  2.4905E-01   1.4684E+00  0.000E+00  0.000E+00  0.000E+00  1.07264E+03  1.727E+00  8.909E+00  6.682E-02  1.864E+00
   1    3    7     3     3    1.4684E+00  1.9718E-01   1.2712E+00  0.000E+00  0.000E+00  0.000E+00  1.06987E+03  1.555E+00  8.218E+00  5.547E-02  1.777E+00
   1    4    8     3     4    1.2712E+00  2.2567E-01   1.0456E+00  0.000E+00  0.000E+00  0.000E+00  1.06682E+03  1.364E+00  7.455E+00  6.709E-02  1.682E+00
   1    5    8     3     5    1.0456E+00  1.5790E-01   8.8768E-01  0.000E+00  0.000E+00  0.000E+00  1.06362E+03  1.164E+00  6.655E+00  4.991E-02  1.582E+00
   1    6    8     3     6    8.8768E-01  5.5980E-02   8.3170E-01  0.000E+00  0.000E+00  0.000E+00  1.06158E+03  1.036E+00  6.145E+00  1.844E-02  1.518E+00
   1    5   10     4     1    1.0000E+01  9.0919E-02   9.9091E+00  0.000E+00  0.000E+00  0.000E+00  1.07836E+03  6.368E-01  1.000E+01  2.500E-02  1.212E+00
   1    5    9     4     2    9.9091E+00  1.8158E-01   9.7275E+00  0.000E+00  0.000E+00  0.000E+00  1.07154E+03  6.315E-01  1.000E+01  5.000E-02  1.211E+00
   1    6    8     4     3    9.7275E+00  1.2689E-01   9.6006E+00  0.000E+00  0.000E+00  0.000E+00  1.06381E+03  6.256E-01  1.000E+01  3.500E-02  1.209E+00
   1    6    8     5     1    1.0432E+01  2.2686E-01   1.0205E+01  0.000E+00  0.000E+00  0.000E+00  1.05868E+03  6.790E-01  1.542E+01  6.166E-02  1.226E+00
   1    7    7     5     2    1.0205E+01  2.7894E-01   9.9265E+00  0.000E+00  0.000E+00  0.000E+00  1.05417E+03  6.732E-01  1.519E+01  7.594E-02  1.224E+00
   1    8    7     5     3    9.9265E+00  1.9221E-01   9.7343E+00  0.000E+00  0.000E+00  0.000E+00  1.04992E+03  6.676E-01  1.497E+01  5.241E-02  1.223E+00
   1    8    6     5     4    9.7343E+00  1.3577E-01   9.5985E+00  0.000E+00  0.000E+00  0.000E+00  1.04691E+03  6.637E-01  1.482E+01  3.706E-02  1.221E+00
   1    9    6     6     1    2.8725E+01  2.5941E-01   2.8465E+01  0.000E+00  0.000E+00  0.000E+00  1.04405E+03  1.324E+00  1.200E+01  6.000E-02  1.441E+00
   1   10    7     6     2    2.8465E+01  2.5898E-01   2.8206E+01  0.000E+00  0.000E+00  0.000E+00  1.03950E+03  1.316E+00  1.200E+01  6.000E-02  1.439E+00
   1   11    7     6     3    2.8206E+01  2.5855E-01   2.7948E+01  0.000E+00  0.000E+00  0.000E+00  1.03495E+03  1.309E+00  1.200E+01  6.000E-02  1.436E+00
   1   12    7     6     4    2.7948E+01  2.5811E-01   2.7689E+01  0.000E+00  0.000E+00  0.000E+00  1.03039E+03  1.302E+00  1.200E+01  6.000E-02  1.434E+00
   1   13    7     6     5    2.7689E+01  1.7845E-02   2.7672E+01  0.000E+00  0.000E+00  0.000E+00  1.02721E+03  1.298E+00  1.200E+01  2.400E-02  2.479E-01
   1   14    9     7     1    1.5000E+02  1.4098E+00   1.4859E+02  0.000E+00  0.000E+00  0.000E+00  1.03987E+03  2.288E+00  5.529E+01  5.593E-01  8.402E-01
   1   13    8     7     2    1.4859E+02  2.0478E+00   1.4654E+02  0.000E+00  0.000E+00  0.000E+00  1.03478E+03  2.278E+00  5.525E+01  6.147E-01  1.110E+00
   1   13    7     7     3    1.4654E+02  1.8000E+00   1.4474E+02  0.000E+00  0.000E+00  0.000E+00  1.02969E+03  2.268E+00  5.521E+01  5.583E-01  1.075E+00
   1   13    6     8     1    1.7241E+02  1.2304E+00   1.7118E+02  0.000E+00  0.000E+00  0.000E+00  1.02484E+03  2.964E+00  4.298E+01  4.379E-01  9.365E-01
   1   13    5     8     2    1.7118E+02  4.3669E-01   1.7075E+02  0.000E+00  0.000E+00  0.000E+00  1.01858E+03  2.958E+00  4.290E+01  4.371E-01  3.330E-01
   1   13    4     8     3    1.7075E+02 -1.6643E+00   1.7241E+02  0.000E+00  0.000E+00  0.000E+00  1.01234E+03  2.962E+00  4.296E+01  4.377E+00 -1.267E-01
   1   13    3     8     4    1.7241E+02 -3.2891E+00   1.7570E+02  0.000E+00  0.000E+00  0.000E+00  1.00610E+03  2.978E+00  4.319E+01  4.401E+00 -2.491E-01
   1   13    2     8     5    1.7570E+02 -2.5380E+00   1.7824E+02  0.000E+00  0.000E+00  0.000E+00  9.99872E+02  2.997E+00  4.346E+01  4.428E+00 -1.910E-01
   1   13    1     8     6    1.7824E+02 -1.9984E+00   1.8024E+02  0.000E+00  0.000E+00  0.000E+00  9.94886E+02  3.011E+00  4.366E+01  2.670E+00 -2.495E-01
   1    8    6     9     1    0.0000E+00  0.0000E+00   0.0000E+00  0.000E+00  0.000E+00  0.000E+00  1.07875E+03  0.000E+00  4.000E+00  0.000E+00  1.000E+00
   1    8    5     9     2    0.0000E+00  0.0000E+00   0.0000E+00  0.000E+00  0.000E+00  0.000E+00  1.07825E+03  0.000E+00  4.000E+00  0.000E+00  1.000E+00





UNSATURATED ZONE PACKAGE VOLUMETRIC BUDGET FOR  TIME STEP    30 STRESS PERIOD   41
  ------------------------------------------------------------------------------



     CUMULATIVE VOLUMES      L**3       RATES FOR THIS TIME STEP      L**3/T
     ------------------                 ------------------------

           IN:                                      IN:
           ---                                      ---
        INFILTRATION =  6224951598.0927          INFILTRATION =           0.8475

          OUT:                                     OUT:
          ----                                     ----
              UZF ET =  1297223018.4087                UZF ET =           0.8475
        UZF RECHARGE =  4537010042.2375          UZF RECHARGE =           2.9711

            IN - OUT =   390718537.4465              IN - OUT =          -2.9711

          STORAGE:                                 STORAGE:
          --------                                 --------
      STORAGE CHANGE =   390754324.5782        STORAGE CHANGE =          -2.9711

 PERCENT DISCREPANCY IS DIFFERENCE BETWEEN IN-OUT MINUS CHANGE IN STORAGE
 DIVIDED BY THE AVERAGE OF IN AND OUT TIMES 100

 PERCENT DISCREPANCY =          -0.00     PERCENT DISCREPANCY =           0.00






1
  VOLUMETRIC BUDGET FOR AGRICULTURAL FIELDS AT  END OF TIME STEP   30, STRESS PERIOD  41
  ------------------------------------------------------------------------------

     CUMULATIVE VOLUMES      L**3       RATES FOR THIS TIME STEP      L**3/T
     ------------------                 ------------------------

           IN:                                      IN:
           ---                                      ---
               AG WELLS  =  5348740096.0000                 AG WELLS  =           0.0000
      DIVERSION SEGMENTS =   786998656.0000        DIVERSION SEGMENTS =           0.0000
           GW IRRIGATION =           0.0000             GW IRRIGATION =           0.0000
           SW IRRIGATION =           0.0000             SW IRRIGATION =           0.0000
        SYSTEM LOSSES GW =           0.0000          SYSTEM LOSSES GW =           0.0000
        SYSTEM LOSSES SW =           0.0000          SYSTEM LOSSES SW =           0.0000

                TOTAL IN =  6135738880.0000                  TOTAL IN =           0.0000

          OUT:                                     OUT:
          ----                                     ----
               AG WELLS  =           0.0000                 AG WELLS  =           0.0000
      DIVERSION SEGMENTS =           0.0000        DIVERSION SEGMENTS =           0.0000
           GW IRRIGATION =  5348740096.0000             GW IRRIGATION =           0.0000
           SW IRRIGATION =   787013952.0000             SW IRRIGATION =           0.0000
        SYSTEM LOSSES GW =           0.0000          SYSTEM LOSSES GW =           0.0000
        SYSTEM LOSSES SW =           0.0000          SYSTEM LOSSES SW =           0.0000

               TOTAL OUT =  6135754240.0000                 TOTAL OUT =           0.0000

                IN - OUT =      -15360.0000                  IN - OUT =           0.0000

     PERCENT DISCREPANCY =          -0.00         PERCENT DISCREPANCY =           0.00



1
  VOLUMETRIC BUDGET FOR ENTIRE MODEL AT END OF TIME STEP   30, STRESS PERIOD  41
  ------------------------------------------------------------------------------

     CUMULATIVE VOLUMES      L**3       RATES FOR THIS TIME STEP      L**3/T
     ------------------                 ------------------------

           IN:                                      IN:
           ---                                      ---
             STORAGE     =  5306840576.0000               STORAGE     =           0.9603
       CONSTANT HEAD     =           0.0000         CONSTANT HEAD     =           0.0000
     HEAD DEP BOUNDS     =    30436426.0000       HEAD DEP BOUNDS     =           0.2908
      STREAM LEAKAGE     =  1275272448.0000        STREAM LEAKAGE     =          12.8774
        UZF RECHARGE     =  4537008128.0000          UZF RECHARGE     =           2.9711
               GW ET     =           0.0000                 GW ET     =           0.0000
     SURFACE LEAKAGE     =           0.0000       SURFACE LEAKAGE     =           0.0000
           AG WELLS      =           0.0000             AG WELLS      =           0.0000

                TOTAL IN = 11149557760.0000                  TOTAL IN =          17.0995

          OUT:                                     OUT:
          ----                                     ----
             STORAGE     =  4755611136.0000               STORAGE     =           7.3179
       CONSTANT HEAD     =           0.0000         CONSTANT HEAD     =           0.0000
     HEAD DEP BOUNDS     =    30254766.0000       HEAD DEP BOUNDS     =           0.2901
      STREAM LEAKAGE     =  1014830208.0000        STREAM LEAKAGE     =           9.4897
        UZF RECHARGE     =           0.0000          UZF RECHARGE     =           0.0000
               GW ET     =           0.0000                 GW ET     =           0.0000
     SURFACE LEAKAGE     =           0.0000       SURFACE LEAKAGE     =           0.0000
           AG WELLS      =  5348740096.0000             AG WELLS      =           0.0000

               TOTAL OUT = 11149435904.0000                 TOTAL OUT =          17.0978

                IN - OUT =      121856.0000                  IN - OUT =       1.7605E-03

     PERCENT DISCREPANCY =           0.00         PERCENT DISCREPANCY =           0.01






         TIME SUMMARY AT END OF TIME STEP   30 IN STRESS PERIOD   41
                    SECONDS     MINUTES      HOURS       DAYS        YEARS
                    -----------------------------------------------------------
   TIME STEP LENGTH  87667.      1461.1      24.352      1.0147     2.77799E-03
 STRESS PERIOD TIME 2.63000E+06  43833.      730.56      30.440     8.33397E-02
         TOTAL TIME 1.05286E+08 1.75476E+06  29246.      1218.6      3.3363    
1
1
                            STRESS PERIOD NO.   42, LENGTH =   2630000.    
                            -----------------------------------------------

                              NUMBER OF TIME STEPS =    30

                               MULTIPLIER FOR DELT =     1.000

                            INITIAL TIME STEP SIZE =   87666.66    

 REUSING NON-PARAMETER GHB CELLS FROM LAST STRESS PERIOD

      2 GHB CELLS

 REUSING STREAM SEGMENT DATA FROM LAST STRESS PERIOD



            AREAL INFILTRATION RATE
 READING ON UNIT   19 WITH FORMAT: (FREE)              

            1           2           3           4           5           6           7           8           9          10
 ........................................................................................................................
   1   1.0000E-10  2.0000E-10   0.000       0.000       0.000       0.000       0.000       0.000       0.000       0.000    
   2   2.0000E-10  1.0000E-10  2.0000E-10   0.000       0.000      8.0000E-10  8.0000E-10  5.0000E-10   0.000       0.000    
   3    0.000      5.0000E-10  1.0000E-10  1.0000E-10  8.0000E-10  8.0000E-10  5.0000E-10  5.0000E-10   0.000       0.000    
   4   8.0000E-10  5.0000E-10  1.0000E-10  1.0000E-10  1.0000E-10  1.0000E-10  1.0000E-10  1.0000E-10  2.0000E-10   0.000    
   5   8.0000E-10  5.0000E-10  1.0000E-10  1.0000E-10  1.0000E-10  1.0000E-10  1.0000E-10  1.0000E-10  1.0000E-10  1.0000E-10
   6   8.0000E-10  5.0000E-10  5.0000E-10  2.0000E-10  2.0000E-10  1.0000E-10  1.0000E-10  1.0000E-10  1.0000E-10  5.0000E-10
   7   8.0000E-10  5.0000E-10  5.0000E-10  2.0000E-10  2.0000E-10  1.0000E-10  1.0000E-10  2.0000E-10  2.0000E-10   0.000    
   8    0.000      5.0000E-10  5.0000E-10  2.0000E-10  2.0000E-10  1.0000E-10  1.0000E-10  2.0000E-10  5.0000E-10   0.000    
   9    0.000      5.0000E-10  5.0000E-10  2.0000E-10  2.0000E-10  1.0000E-10  1.0000E-10  2.0000E-10  5.0000E-10   0.000    
  10    0.000      5.0000E-10  5.0000E-10  2.0000E-10  2.0000E-10  1.0000E-10  1.0000E-10  2.0000E-10  5.0000E-10  8.0000E-10
  11    0.000      1.0000E-10  1.0000E-10  1.0000E-10  1.0000E-10  1.0000E-10  1.0000E-10  2.0000E-10  5.0000E-10   0.000    
  12   1.0000E-10  1.0000E-10  1.0000E-10  1.0000E-10  1.0000E-10  1.0000E-10  1.0000E-10  1.0000E-10  2.0000E-10   0.000    
  13   1.0000E-10  1.0000E-10  2.0000E-10  2.0000E-10  2.0000E-10  2.0000E-10  2.0000E-10  1.0000E-10  1.0000E-10   0.000    
  14    0.000      2.0000E-10  5.0000E-10  5.0000E-10  5.0000E-10  5.0000E-10  5.0000E-10  2.0000E-10  1.0000E-10   0.000    
  15    0.000       0.000      8.0000E-10  8.0000E-10  8.0000E-10  8.0000E-10   0.000       0.000       0.000       0.000    

                  ET RATE =  5.000000E-08

 USING ET EXTINCTION DEPTH FROM PREVIOUS STRESS PERIOD. CURRENT PERIOD IS:      42

 USING EXTINCTION WATER CONTENT FROM PREVIOUS STRESS PERIOD. CURRENT PERIOD IS:      42

 USING AIR ENTRY PRESSURE FROM PREVIOUS STRESS PERIOD. CURRENT PERIOD IS:      42

 USING ROOT PRESSURE HEAD FROM PREVIOUS STRESS PERIOD. CURRENT PERIOD IS:      42

 USING ROOT ACTIVITY FROM PREVIOUS STRESS PERIOD. CURRENT PERIOD IS:      42

 PROCESSING AG STRESS PERIOD DATA

 READING AG STRESS PERIOD DATA

 READING IRRIGATION SEGMENT

 READING IRRIGATION WELL

 READING SUPPLEMENTAL WELL

 END PROCESSING AG STRESS PERIOD DATA OPTIONS
 
 SOLVING FOR HEAD 
                                                   Max.-Head-Change                         Max.-Flux-Residual
  Residual-Control   Outer-Iter.   Inner-Iter.     Column Row Layer    Maximum-Head-Change  Column Row Layer    Maximum-Flux-Residual          L2-NORM 
          0                 1           2             4   13     1      -0.4426351684E-02       4   13    1        -0.2545702241E+00      0.1071848763E+01
          0                 2           2             4    7     1      -0.1861670322E+01       4    7    1        -0.9998231399E+02      0.2448978538E+03
          0                 3           2             4    7     1       0.1173964745E+00       5    8    1         0.6537837675E+01      0.1584110572E+02
          0                 4           2             4    7     1      -0.4671396710E-02       5    8    1        -0.2674020046E+00      0.6479165643E+00
          0                 5           1             4    7     1       0.5760021512E-04       5    8    1         0.3388801147E-02      0.8211670461E-02

    ------------------------------------------------
       NWT REQUIRED            5 OUTER ITERATIONS 
       AND A TOTAL OF          9 INNER ITERATIONS.
    ------------------------------------------------

 NO OUTPUT CONTROL FOR STRESS PERIOD   42   TIME STEP    1
 
 SOLVING FOR HEAD 
                                                   Max.-Head-Change                         Max.-Flux-Residual
  Residual-Control   Outer-Iter.   Inner-Iter.     Column Row Layer    Maximum-Head-Change  Column Row Layer    Maximum-Flux-Residual          L2-NORM 
          0                 1           2             5    8     1       0.4629987569E-01       5    8    1         0.2559373229E+01      0.5425981141E+01
          0                 2           2             5    8     1      -0.1003603189E+00       5    8    1        -0.5533643748E+01      0.1332355172E+02
          0                 3           2             4    7     1       0.6449163733E-01       5    8    1         0.3575013721E+01      0.8739220210E+01
          0                 4           2             4    7     1      -0.9562736523E-01       5    8    1        -0.5423887587E+01      0.1328506309E+02
          0                 5           2             4    7     1       0.1179072036E-02       4    7    1         0.6871998535E-01      0.1683670594E+00
          0                 6           1             4    7     1       0.1734087831E-04       5    8    1         0.1012691761E-02      0.2483056557E-02

    ------------------------------------------------
       NWT REQUIRED            6 OUTER ITERATIONS 
       AND A TOTAL OF         11 INNER ITERATIONS.
    ------------------------------------------------

 NO OUTPUT CONTROL FOR STRESS PERIOD   42   TIME STEP    2
 
 SOLVING FOR HEAD 
                                                   Max.-Head-Change                         Max.-Flux-Residual
  Residual-Control   Outer-Iter.   Inner-Iter.     Column Row Layer    Maximum-Head-Change  Column Row Layer    Maximum-Flux-Residual          L2-NORM 
          0                 1           2             5    8     1       0.4753010130E-01       5    8    1         0.2624857662E+01      0.5595569487E+01
          0                 2           2             5    8     1      -0.1004800179E+00       5    8    1        -0.5540192108E+01      0.1334392602E+02
          0                 3           2             4    7     1       0.6450222907E-01       5    8    1         0.3575472128E+01      0.8740555695E+01
          0                 4           2             4    7     1      -0.9562806716E-01       5    8    1        -0.5423906413E+01      0.1328511982E+02
          0                 5           2             4    7     1       0.1179080690E-02       4    7    1         0.6872028450E-01      0.1683676889E+00
          0                 6           1             4    7     1       0.1734100589E-04       5    8    1         0.1012695210E-02      0.2483065212E-02

    ------------------------------------------------
       NWT REQUIRED            6 OUTER ITERATIONS 
       AND A TOTAL OF         11 INNER ITERATIONS.
    ------------------------------------------------

 NO OUTPUT CONTROL FOR STRESS PERIOD   42   TIME STEP    3
 
 SOLVING FOR HEAD 
                                                   Max.-Head-Change                         Max.-Flux-Residual
  Residual-Control   Outer-Iter.   Inner-Iter.     Column Row Layer    Maximum-Head-Change  Column Row Layer    Maximum-Flux-Residual          L2-NORM 
          0                 1           2             5    8     1       0.4873082511E-01       5    8    1         0.2688792436E+01      0.5764173781E+01
          0                 2           2             5    8     1      -0.1005968508E+00       5    8    1        -0.5546585497E+01      0.1336378247E+02
          0                 3           2             4    7     1       0.6451276792E-01       5    8    1         0.3575919687E+01      0.8741829456E+01
          0                 4           2             4    7     1      -0.9562876752E-01       5    8    1        -0.5423924793E+01      0.1328517503E+02
          0                 5           2             4    7     1       0.1179089324E-02       4    7    1         0.6872058241E-01      0.1683682869E+00
          0                 6           1             4    7     1       0.1734113281E-04       5    8    1         0.1012698537E-02      0.2483072881E-02

    ------------------------------------------------
       NWT REQUIRED            6 OUTER ITERATIONS 
       AND A TOTAL OF         11 INNER ITERATIONS.
    ------------------------------------------------

 NO OUTPUT CONTROL FOR STRESS PERIOD   42   TIME STEP    4
 
 SOLVING FOR HEAD 
                                                   Max.-Head-Change                         Max.-Flux-Residual
  Residual-Control   Outer-Iter.   Inner-Iter.     Column Row Layer    Maximum-Head-Change  Column Row Layer    Maximum-Flux-Residual          L2-NORM 
          0                 1           2             5    8     1       0.4990235905E-01       5    8    1         0.2751189387E+01      0.5931183917E+01
          0                 2           2             5    6     1      -0.1007147582E+00       5    8    1        -0.5552825098E+01      0.1338313794E+02
          0                 3           2             4    7     1       0.6452324226E-01       5    8    1         0.3576356480E+01      0.8743154704E+01
          0                 4           2             4    7     1      -0.9562946550E-01       5    8    1        -0.5423942732E+01      0.1328522928E+02
          0                 5           2             4    7     1       0.1179097929E-02       4    7    1         0.6872087873E-01      0.1683688429E+00
          0                 6           1             4    7     1       0.1734125927E-04       5    8    1         0.1012701808E-02      0.2483125632E-02

    ------------------------------------------------
       NWT REQUIRED            6 OUTER ITERATIONS 
       AND A TOTAL OF         11 INNER ITERATIONS.
    ------------------------------------------------

 NO OUTPUT CONTROL FOR STRESS PERIOD   42   TIME STEP    5
 
 SOLVING FOR HEAD 
                                                   Max.-Head-Change                         Max.-Flux-Residual
  Residual-Control   Outer-Iter.   Inner-Iter.     Column Row Layer    Maximum-Head-Change  Column Row Layer    Maximum-Flux-Residual          L2-NORM 
          0                 1           2             5    8     1       0.5104509465E-01       5    8    1         0.2812064707E+01      0.6096133490E+01
          0                 2           2             5    6     1      -0.1008319118E+00       5    8    1        -0.5558912531E+01      0.1340200894E+02
          0                 3           2             4    7     1       0.6453364269E-01       5    8    1         0.3576782620E+01      0.8744447306E+01
          0                 4           2             4    7     1      -0.9563016044E-01       5    8    1        -0.5423960233E+01      0.1328528222E+02
          0                 5           2             4    7     1       0.1179106496E-02       4    7    1         0.6872117318E-01      0.1683694673E+00
          0                 6           1             4    7     1       0.1734138529E-04       5    8    1         0.1012704963E-02      0.2483086179E-02

    ------------------------------------------------
       NWT REQUIRED            6 OUTER ITERATIONS 
       AND A TOTAL OF         11 INNER ITERATIONS.
    ------------------------------------------------

 NO OUTPUT CONTROL FOR STRESS PERIOD   42   TIME STEP    6
 
 SOLVING FOR HEAD 
                                                   Max.-Head-Change                         Max.-Flux-Residual
  Residual-Control   Outer-Iter.   Inner-Iter.     Column Row Layer    Maximum-Head-Change  Column Row Layer    Maximum-Flux-Residual          L2-NORM 
          0                 1           2             5    8     1       0.5215962112E-01       5    8    1         0.2871446541E+01      0.6258677251E+01
          0                 2           2             5    6     1      -0.1009460246E+00       5    8    1        -0.5564850612E+01      0.1342041116E+02
          0                 3           2             4    7     1       0.6454396092E-01       5    8    1         0.3577198304E+01      0.8745695878E+01
          0                 4           2             4    7     1      -0.9563085174E-01       5    8    1        -0.5423977305E+01      0.1328533383E+02
          0                 5           2             4    7     1       0.1179115018E-02       4    7    1         0.6872146549E-01      0.1683700682E+00
          0                 6           1             4    7     1       0.1734151086E-04       5    8    1         0.1012708054E-02      0.2483093854E-02

    ------------------------------------------------
       NWT REQUIRED            6 OUTER ITERATIONS 
       AND A TOTAL OF         11 INNER ITERATIONS.
    ------------------------------------------------

 NO OUTPUT CONTROL FOR STRESS PERIOD   42   TIME STEP    7
 
 SOLVING FOR HEAD 
                                                   Max.-Head-Change                         Max.-Flux-Residual
  Residual-Control   Outer-Iter.   Inner-Iter.     Column Row Layer    Maximum-Head-Change  Column Row Layer    Maximum-Flux-Residual          L2-NORM 
          0                 1           2             5    8     1       0.5324656830E-01       5    8    1         0.2929365448E+01      0.6418575654E+01
          0                 2           2             5    6     1      -0.1010571965E+00       5    8    1        -0.5570642398E+01      0.1343835404E+02
          0                 3           2             4    7     1       0.6455418897E-01       5    8    1         0.3577603748E+01      0.8746927264E+01
          0                 4           2             4    7     1      -0.9563153895E-01       5    8    1        -0.5423993955E+01      0.1328538426E+02
          0                 5           2             4    7     1       0.1179123490E-02       4    7    1         0.6872175538E-01      0.1683706425E+00
          0                 6           1             4    7     1       0.1734163497E-04       5    8    1         0.1012711061E-02      0.2483101192E-02

    ------------------------------------------------
       NWT REQUIRED            6 OUTER ITERATIONS 
       AND A TOTAL OF         11 INNER ITERATIONS.
    ------------------------------------------------

 NO OUTPUT CONTROL FOR STRESS PERIOD   42   TIME STEP    8
 
 SOLVING FOR HEAD 
                                                   Max.-Head-Change                         Max.-Flux-Residual
  Residual-Control   Outer-Iter.   Inner-Iter.     Column Row Layer    Maximum-Head-Change  Column Row Layer    Maximum-Flux-Residual          L2-NORM 
          0                 1           2             5    8     1       0.5430645585E-01       5    8    1         0.2985846267E+01      0.6575758518E+01
          0                 2           2             5    6     1      -0.1011654825E+00       5    8    1        -0.5576290373E+01      0.1345587091E+02
          0                 3           2             4    7     1       0.6456432170E-01       5    8    1         0.3577999124E+01      0.8748129642E+01
          0                 4           2             4    7     1      -0.9563222142E-01       5    8    1        -0.5424010192E+01      0.1328543351E+02
          0                 5           2             4    7     1       0.1179131903E-02       4    7    1         0.6872204273E-01      0.1683712254E+00
          0                 6           1             4    7     1       0.1734175898E-04       5    8    1         0.1012713979E-02      0.2483132893E-02

    ------------------------------------------------
       NWT REQUIRED            6 OUTER ITERATIONS 
       AND A TOTAL OF         11 INNER ITERATIONS.
    ------------------------------------------------

 NO OUTPUT CONTROL FOR STRESS PERIOD   42   TIME STEP    9
 
 SOLVING FOR HEAD 
                                                   Max.-Head-Change                         Max.-Flux-Residual
  Residual-Control   Outer-Iter.   Inner-Iter.     Column Row Layer    Maximum-Head-Change  Column Row Layer    Maximum-Flux-Residual          L2-NORM 
          0                 1           2             5    8     1       0.5533997564E-01       5    8    1         0.3040923782E+01      0.6730077877E+01
          0                 2           2             5    6     1      -0.1012709775E+00       5    8    1        -0.5581798015E+01      0.1347295810E+02
          0                 3           2             4    7     1       0.6457435131E-01       5    8    1         0.3578384676E+01      0.8749303834E+01
          0                 4           2             4    7     1      -0.9563289872E-01       5    8    1        -0.5424026025E+01      0.1328548160E+02
          0                 5           2             4    7     1       0.1179140252E-02       4    7    1         0.6872232728E-01      0.1683717807E+00
          0                 6           1             4    7     1       0.1734188175E-04       5    8    1         0.1012716846E-02      0.2483116286E-02

    ------------------------------------------------
       NWT REQUIRED            6 OUTER ITERATIONS 
       AND A TOTAL OF         11 INNER ITERATIONS.
    ------------------------------------------------

 NO OUTPUT CONTROL FOR STRESS PERIOD   42   TIME STEP   10
 
 SOLVING FOR HEAD 
                                                   Max.-Head-Change                         Max.-Flux-Residual
  Residual-Control   Outer-Iter.   Inner-Iter.     Column Row Layer    Maximum-Head-Change  Column Row Layer    Maximum-Flux-Residual          L2-NORM 
          0                 1           2             5    8     1       0.5634769827E-01       5    8    1         0.3094626048E+01      0.6881358669E+01
          0                 2           2             5    6     1      -0.1013737326E+00       5    8    1        -0.5587168132E+01      0.1348963443E+02
          0                 3           2             4    7     1       0.6458427478E-01       5    8    1         0.3578760601E+01      0.8750450712E+01
          0                 4           2             4    7     1      -0.9563357060E-01       5    8    1        -0.5424041462E+01      0.1328552857E+02
          0                 5           2             4    7     1       0.1179148535E-02       4    7    1         0.6872260893E-01      0.1683723214E+00
          0                 6           1             4    7     1       0.1734200362E-04       5    8    1         0.1012719627E-02      0.2483122153E-02

    ------------------------------------------------
       NWT REQUIRED            6 OUTER ITERATIONS 
       AND A TOTAL OF         11 INNER ITERATIONS.
    ------------------------------------------------

 NO OUTPUT CONTROL FOR STRESS PERIOD   42   TIME STEP   11
 
 SOLVING FOR HEAD 
                                                   Max.-Head-Change                         Max.-Flux-Residual
  Residual-Control   Outer-Iter.   Inner-Iter.     Column Row Layer    Maximum-Head-Change  Column Row Layer    Maximum-Flux-Residual          L2-NORM 
          0                 1           2             5    8     1       0.5733048581E-01       5    8    1         0.3146998313E+01      0.7029590004E+01
          0                 2           2             5    6     1      -0.1014738610E+00       5    8    1        -0.5592405247E+01      0.1350591453E+02
          0                 3           2             4    7     1       0.6459408711E-01       5    8    1         0.3579127215E+01      0.8751571195E+01
          0                 4           2             4    7     1      -0.9563423669E-01       5    8    1        -0.5424056516E+01      0.1328557446E+02
          0                 5           2             4    7     1       0.1179156746E-02       4    7    1         0.6872288752E-01      0.1683728594E+00
          0                 6           1             4    7     1       0.1734212460E-04       5    8    1         0.1012722334E-02      0.2483128850E-02

    ------------------------------------------------
       NWT REQUIRED            6 OUTER ITERATIONS 
       AND A TOTAL OF         11 INNER ITERATIONS.
    ------------------------------------------------

 NO OUTPUT CONTROL FOR STRESS PERIOD   42   TIME STEP   12
 
 SOLVING FOR HEAD 
                                                   Max.-Head-Change                         Max.-Flux-Residual
  Residual-Control   Outer-Iter.   Inner-Iter.     Column Row Layer    Maximum-Head-Change  Column Row Layer    Maximum-Flux-Residual          L2-NORM 
          0                 1           2             5    8     1       0.5828863747E-01       5    8    1         0.3198053983E+01      0.7174737053E+01
          0                 2           2             5    6     1      -0.1015714017E+00       5    8    1        -0.5597510702E+01      0.1352180926E+02
          0                 3           2             4    7     1       0.6460378395E-01       5    8    1         0.3579484612E+01      0.8752665983E+01
          0                 4           2             4    7     1      -0.9563489665E-01       5    8    1        -0.5424071190E+01      0.1328561930E+02
          0                 5           2             4    7     1       0.1179164882E-02       4    7    1         0.6872316293E-01      0.1683733913E+00
          0                 6           1             4    7     1       0.1734224401E-04       5    8    1         0.1012724952E-02      0.2483135728E-02

    ------------------------------------------------
       NWT REQUIRED            6 OUTER ITERATIONS 
       AND A TOTAL OF         11 INNER ITERATIONS.
    ------------------------------------------------

 NO OUTPUT CONTROL FOR STRESS PERIOD   42   TIME STEP   13
 
 SOLVING FOR HEAD 
                                                   Max.-Head-Change                         Max.-Flux-Residual
  Residual-Control   Outer-Iter.   Inner-Iter.     Column Row Layer    Maximum-Head-Change  Column Row Layer    Maximum-Flux-Residual          L2-NORM 
          0                 1           2             5    8     1       0.5922332116E-01       5    8    1         0.3247855525E+01      0.7316828752E+01
          0                 2           2             5    6     1      -0.1016664670E+00       5    8    1        -0.5602490744E+01      0.1353733284E+02
          0                 3           2             4    7     1       0.6461336335E-01       5    8    1         0.3579833230E+01      0.8753735985E+01
          0                 4           2             4    7     1      -0.9563555031E-01       5    8    1        -0.5424085504E+01      0.1328566312E+02
          0                 5           2             4    7     1       0.1179172940E-02       4    7    1         0.6872343507E-01      0.1683739078E+00
          0                 6           1             4    7     1       0.1734236252E-04       5    8    1         0.1012727530E-02      0.2483144000E-02

    ------------------------------------------------
       NWT REQUIRED            6 OUTER ITERATIONS 
       AND A TOTAL OF         11 INNER ITERATIONS.
    ------------------------------------------------

 NO OUTPUT CONTROL FOR STRESS PERIOD   42   TIME STEP   14
 
 SOLVING FOR HEAD 
                                                   Max.-Head-Change                         Max.-Flux-Residual
  Residual-Control   Outer-Iter.   Inner-Iter.     Column Row Layer    Maximum-Head-Change  Column Row Layer    Maximum-Flux-Residual          L2-NORM 
          0                 1           2             5    8     1       0.6013482944E-01       5    8    1         0.3296416563E+01      0.7455887255E+01
          0                 2           2             5    6     1      -0.1017591091E+00       5    8    1        -0.5607346735E+01      0.1355249642E+02
          0                 3           2             4    7     1       0.6462282118E-01       5    8    1         0.3580173165E+01      0.8754781924E+01
          0                 4           2             4    7     1      -0.9563619735E-01       5    8    1        -0.5424099460E+01      0.1328570595E+02
          0                 5           2             4    7     1       0.1179180916E-02       4    7    1         0.6872370383E-01      0.1683744188E+00
          0                 6           1             4    7     1       0.1734247980E-04       5    8    1         0.1012730017E-02      0.2483148994E-02

    ------------------------------------------------
       NWT REQUIRED            6 OUTER ITERATIONS 
       AND A TOTAL OF         11 INNER ITERATIONS.
    ------------------------------------------------

 NO OUTPUT CONTROL FOR STRESS PERIOD   42   TIME STEP   15
 
 SOLVING FOR HEAD 
                                                   Max.-Head-Change                         Max.-Flux-Residual
  Residual-Control   Outer-Iter.   Inner-Iter.     Column Row Layer    Maximum-Head-Change  Column Row Layer    Maximum-Flux-Residual          L2-NORM 
          0                 1           2             5    8     1       0.6102389776E-01       5    8    1         0.3343775746E+01      0.7591952119E+01
          0                 2           2             5    6     1      -0.1018494109E+00       5    8    1        -0.5612082542E+01      0.1356730794E+02
          0                 3           2             4    7     1       0.6463215768E-01       5    8    1         0.3580504685E+01      0.8755804505E+01
          0                 4           2             4    7     1      -0.9563683787E-01       5    8    1        -0.5424113069E+01      0.1328574782E+02
          0                 5           2             4    7     1       0.1179188811E-02       4    7    1         0.6872396908E-01      0.1683749144E+00
          0                 6           1             4    7     1       0.1734259574E-04       5    8    1         0.1012732451E-02      0.2483155583E-02

    ------------------------------------------------
       NWT REQUIRED            6 OUTER ITERATIONS 
       AND A TOTAL OF         11 INNER ITERATIONS.
    ------------------------------------------------

 NO OUTPUT CONTROL FOR STRESS PERIOD   42   TIME STEP   16
 
 SOLVING FOR HEAD 
                                                   Max.-Head-Change                         Max.-Flux-Residual
  Residual-Control   Outer-Iter.   Inner-Iter.     Column Row Layer    Maximum-Head-Change  Column Row Layer    Maximum-Flux-Residual          L2-NORM 
          0                 1           2             5    8     1       0.6189138668E-01       5    8    1         0.3389979029E+01      0.7725137145E+01
          0                 2           2             5    6     1      -0.1019374439E+00       5    8    1        -0.5616702759E+01      0.1358179004E+02
          0                 3           2             4    7     1       0.6464136878E-01       5    8    1         0.3580828114E+01      0.8756804531E+01
          0                 4           2             4    7     1      -0.9563747131E-01       5    8    1        -0.5424126345E+01      0.1328578878E+02
          0                 5           2             4    7     1       0.1179196620E-02       4    7    1         0.6872423096E-01      0.1683754037E+00
          0                 6           1             4    7     1       0.1734271078E-04       5    8    1         0.1012734818E-02      0.2483162012E-02

    ------------------------------------------------
       NWT REQUIRED            6 OUTER ITERATIONS 
       AND A TOTAL OF         11 INNER ITERATIONS.
    ------------------------------------------------

 NO OUTPUT CONTROL FOR STRESS PERIOD   42   TIME STEP   17
 
 SOLVING FOR HEAD 
                                                   Max.-Head-Change                         Max.-Flux-Residual
  Residual-Control   Outer-Iter.   Inner-Iter.     Column Row Layer    Maximum-Head-Change  Column Row Layer    Maximum-Flux-Residual          L2-NORM 
          0                 1           2             5    8     1       0.6273785579E-01       5    8    1         0.3435055399E+01      0.7855461242E+01
          0                 2           2             5    6     1      -0.1020232921E+00       5    8    1        -0.5621210285E+01      0.1359594191E+02
          0                 3           2             4    7     1       0.6465045496E-01       5    8    1         0.3581143654E+01      0.8757782575E+01
          0                 4           2             4    7     1      -0.9563809779E-01       5    8    1        -0.5424139296E+01      0.1328582883E+02
          0                 5           2             4    7     1       0.1179204343E-02       4    7    1         0.6872448929E-01      0.1683758832E+00
          0                 6           1             4    7     1       0.1734282414E-04       5    8    1         0.1012737134E-02      0.2483168042E-02

    ------------------------------------------------
       NWT REQUIRED            6 OUTER ITERATIONS 
       AND A TOTAL OF         11 INNER ITERATIONS.
    ------------------------------------------------

 NO OUTPUT CONTROL FOR STRESS PERIOD   42   TIME STEP   18
 
 SOLVING FOR HEAD 
                                                   Max.-Head-Change                         Max.-Flux-Residual
  Residual-Control   Outer-Iter.   Inner-Iter.     Column Row Layer    Maximum-Head-Change  Column Row Layer    Maximum-Flux-Residual          L2-NORM 
          0                 1           2             5    8     1       0.6356386250E-01       5    8    1         0.3479033882E+01      0.7982952398E+01
          0                 2           2             5    6     1      -0.1021070135E+00       5    8    1        -0.5625608024E+01      0.1360977713E+02
          0                 3           2             4    7     1       0.6465941351E-01       5    8    1         0.3581451509E+01      0.8758739342E+01
          0                 4           2             4    7     1      -0.9563871708E-01       5    8    1        -0.5424151931E+01      0.1328586800E+02
          0                 5           2             4    7     1       0.1179211977E-02       4    7    1         0.6872474400E-01      0.1683763528E+00
          0                 6           1             4    7     1       0.1734293660E-04       5    8    1         0.1012739384E-02      0.2483176061E-02

    ------------------------------------------------
       NWT REQUIRED            6 OUTER ITERATIONS 
       AND A TOTAL OF         11 INNER ITERATIONS.
    ------------------------------------------------

 NO OUTPUT CONTROL FOR STRESS PERIOD   42   TIME STEP   19
 
 SOLVING FOR HEAD 
                                                   Max.-Head-Change                         Max.-Flux-Residual
  Residual-Control   Outer-Iter.   Inner-Iter.     Column Row Layer    Maximum-Head-Change  Column Row Layer    Maximum-Flux-Residual          L2-NORM 
          0                 1           2             5    8     1       0.6437023146E-01       5    8    1         0.3521959017E+01      0.8107679263E+01
          0                 2           2             5    6     1      -0.1021886679E+00       5    8    1        -0.5629900429E+01      0.1362330569E+02
          0                 3           2             4    7     1       0.6466824497E-01       5    8    1         0.3581751990E+01      0.8759675448E+01
          0                 4           2             4    7     1      -0.9563932918E-01       5    8    1        -0.5424164262E+01      0.1328590633E+02
          0                 5           2             4    7     1       0.1179219522E-02       4    7    1         0.6872499517E-01      0.1683768126E+00
          0                 6           1             4    7     1       0.1734304772E-04       5    8    1         0.1012741574E-02      0.2483180348E-02

    ------------------------------------------------
       NWT REQUIRED            6 OUTER ITERATIONS 
       AND A TOTAL OF         11 INNER ITERATIONS.
    ------------------------------------------------

 NO OUTPUT CONTROL FOR STRESS PERIOD   42   TIME STEP   20
 
 SOLVING FOR HEAD 
                                                   Max.-Head-Change                         Max.-Flux-Residual
  Residual-Control   Outer-Iter.   Inner-Iter.     Column Row Layer    Maximum-Head-Change  Column Row Layer    Maximum-Flux-Residual          L2-NORM 
          0                 1           2             5    8     1       0.6515748394E-01       5    8    1         0.3563857936E+01      0.8229699989E+01
          0                 2           2             5    6     1      -0.1022683412E+00       5    8    1        -0.5634090213E+01      0.1363653353E+02
          0                 3           2             4    7     1       0.6467695881E-01       5    8    1         0.3582045287E+01      0.8760591484E+01
          0                 4           2             4    7     1      -0.9563994117E-01       5    8    1        -0.5424176297E+01      0.1328594383E+02
          0                 5           2             4    7     1       0.1179227064E-02       4    7    1         0.6872523005E-01      0.1683772584E+00
          0                 6           1             4    7     1       0.1734315884E-04       5    8    1         0.1012743716E-02      0.2483186000E-02

    ------------------------------------------------
       NWT REQUIRED            6 OUTER ITERATIONS 
       AND A TOTAL OF         11 INNER ITERATIONS.
    ------------------------------------------------

 NO OUTPUT CONTROL FOR STRESS PERIOD   42   TIME STEP   21
 
 SOLVING FOR HEAD 
                                                   Max.-Head-Change                         Max.-Flux-Residual
  Residual-Control   Outer-Iter.   Inner-Iter.     Column Row Layer    Maximum-Head-Change  Column Row Layer    Maximum-Flux-Residual          L2-NORM 
          0                 1           2             5    8     1       0.6592612618E-01       5    8    1         0.3604757673E+01      0.8349138727E+01
          0                 2           2             5    6     1      -0.1023461029E+00       5    8    1        -0.5638180081E+01      0.1364948022E+02
          0                 3           2             4    7     1       0.6468552733E-01       5    8    1         0.3582331590E+01      0.8761488106E+01
          0                 4           2             4    7     1      -0.9564053848E-01       5    8    1        -0.5424188044E+01      0.1328598055E+02
          0                 5           2             4    7     1       0.1179234428E-02       4    7    1         0.6872547494E-01      0.1683776999E+00
          0                 6           1             4    7     1       0.1734326671E-04       5    8    1         0.1012745800E-02      0.2483191663E-02

    ------------------------------------------------
       NWT REQUIRED            6 OUTER ITERATIONS 
       AND A TOTAL OF         11 INNER ITERATIONS.
    ------------------------------------------------

 NO OUTPUT CONTROL FOR STRESS PERIOD   42   TIME STEP   22
 
 SOLVING FOR HEAD 
                                                   Max.-Head-Change                         Max.-Flux-Residual
  Residual-Control   Outer-Iter.   Inner-Iter.     Column Row Layer    Maximum-Head-Change  Column Row Layer    Maximum-Flux-Residual          L2-NORM 
          0                 1           2             5    8     1       0.6667694664E-01       5    8    1         0.3644700117E+01      0.8466096169E+01
          0                 2           2             5    6     1      -0.1024219916E+00       5    8    1        -0.5642174221E+01      0.1366214407E+02
          0                 3           2             4    7     1       0.6469397130E-01       5    8    1         0.3582611191E+01      0.8762365784E+01
          0                 4           2             4    7     1      -0.9564112860E-01       5    8    1        -0.5424199515E+01      0.1328601648E+02
          0                 5           2             4    7     1       0.1179241702E-02       4    7    1         0.6872571539E-01      0.1683781325E+00
          0                 6           1             4    7     1       0.1734337391E-04       5    8    1         0.1012747829E-02      0.2483197399E-02

    ------------------------------------------------
       NWT REQUIRED            6 OUTER ITERATIONS 
       AND A TOTAL OF         11 INNER ITERATIONS.
    ------------------------------------------------

 NO OUTPUT CONTROL FOR STRESS PERIOD   42   TIME STEP   23
 
 SOLVING FOR HEAD 
                                                   Max.-Head-Change                         Max.-Flux-Residual
  Residual-Control   Outer-Iter.   Inner-Iter.     Column Row Layer    Maximum-Head-Change  Column Row Layer    Maximum-Flux-Residual          L2-NORM 
          0                 1           2             5    8     1       0.6741041127E-01       5    8    1         0.3683710520E+01      0.8580552782E+01
          0                 2           2             5    6     1      -0.1024960722E+00       5    8    1        -0.5646075158E+01      0.1367453683E+02
          0                 3           2             4    7     1       0.6470228772E-01       5    8    1         0.3582884267E+01      0.8763225087E+01
          0                 4           2             4    7     1      -0.9564171146E-01       5    8    1        -0.5424210717E+01      0.1328605166E+02
          0                 5           2             4    7     1       0.1179248887E-02       4    7    1         0.6872595219E-01      0.1683785566E+00
          0                 6           1             4    7     1       0.1734347954E-04       5    8    1         0.1012749806E-02      0.2483202724E-02

    ------------------------------------------------
       NWT REQUIRED            6 OUTER ITERATIONS 
       AND A TOTAL OF         11 INNER ITERATIONS.
    ------------------------------------------------

 NO OUTPUT CONTROL FOR STRESS PERIOD   42   TIME STEP   24
 
 SOLVING FOR HEAD 
                                                   Max.-Head-Change                         Max.-Flux-Residual
  Residual-Control   Outer-Iter.   Inner-Iter.     Column Row Layer    Maximum-Head-Change  Column Row Layer    Maximum-Flux-Residual          L2-NORM 
          0                 1           2             5    8     1       0.6812711821E-01       5    8    1         0.3721820863E+01      0.8692576664E+01
          0                 2           2             5    6     1      -0.1025684242E+00       5    8    1        -0.5649886091E+01      0.1368666609E+02
          0                 3           2             4    7     1       0.6471047463E-01       5    8    1         0.3583151044E+01      0.8764066536E+01
          0                 4           2             4    7     1      -0.9564228687E-01       5    8    1        -0.5424221659E+01      0.1328608611E+02
          0                 5           2             4    7     1       0.1179255980E-02       4    7    1         0.6872618533E-01      0.1683789724E+00
          0                 6           1             4    7     1       0.1734358372E-04       5    8    1         0.1012751748E-02      0.2483208558E-02

    ------------------------------------------------
       NWT REQUIRED            6 OUTER ITERATIONS 
       AND A TOTAL OF         11 INNER ITERATIONS.
    ------------------------------------------------

 NO OUTPUT CONTROL FOR STRESS PERIOD   42   TIME STEP   25
 
 SOLVING FOR HEAD 
                                                   Max.-Head-Change                         Max.-Flux-Residual
  Residual-Control   Outer-Iter.   Inner-Iter.     Column Row Layer    Maximum-Head-Change  Column Row Layer    Maximum-Flux-Residual          L2-NORM 
          0                 1           2             5    8     1       0.6882764891E-01       5    8    1         0.3759062162E+01      0.8802234907E+01
          0                 2           2             5    6     1      -0.1026390936E+00       5    8    1        -0.5653610122E+01      0.1369854069E+02
          0                 3           2             4    7     1       0.6471853492E-01       5    8    1         0.3583411736E+01      0.8764890708E+01
          0                 4           2             4    7     1      -0.9564285501E-01       5    8    1        -0.5424232350E+01      0.1328611985E+02
          0                 5           2             4    7     1       0.1179262983E-02       4    7    1         0.6872641486E-01      0.1683793801E+00
          0                 6           1             4    7     1       0.1734368700E-04       5    8    1         0.1012753625E-02      0.2483213415E-02

    ------------------------------------------------
       NWT REQUIRED            6 OUTER ITERATIONS 
       AND A TOTAL OF         11 INNER ITERATIONS.
    ------------------------------------------------

 NO OUTPUT CONTROL FOR STRESS PERIOD   42   TIME STEP   26
 
 SOLVING FOR HEAD 
                                                   Max.-Head-Change                         Max.-Flux-Residual
  Residual-Control   Outer-Iter.   Inner-Iter.     Column Row Layer    Maximum-Head-Change  Column Row Layer    Maximum-Flux-Residual          L2-NORM 
          0                 1           2             5    8     1       0.6951242598E-01       5    8    1         0.3795456764E+01      0.8909584038E+01
          0                 2           2             5    6     1      -0.1027081401E+00       5    8    1        -0.5657249484E+01      0.1371016673E+02
          0                 3           2             4    7     1       0.6472646787E-01       5    8    1         0.3583666502E+01      0.8765697992E+01
          0                 4           2             4    7     1      -0.9564341577E-01       5    8    1        -0.5424242798E+01      0.1328615289E+02
          0                 5           2             4    7     1       0.1179269896E-02       4    7    1         0.6872664076E-01      0.1683797799E+00
          0                 6           1             4    7     1       0.1734378859E-04       5    8    1         0.1012755454E-02      0.2483218246E-02

    ------------------------------------------------
       NWT REQUIRED            6 OUTER ITERATIONS 
       AND A TOTAL OF         11 INNER ITERATIONS.
    ------------------------------------------------

 NO OUTPUT CONTROL FOR STRESS PERIOD   42   TIME STEP   27
 
 SOLVING FOR HEAD 
                                                   Max.-Head-Change                         Max.-Flux-Residual
  Residual-Control   Outer-Iter.   Inner-Iter.     Column Row Layer    Maximum-Head-Change  Column Row Layer    Maximum-Flux-Residual          L2-NORM 
          0                 1           2             5    8     1       0.7018199419E-01       5    8    1         0.3831034394E+01      0.9014690992E+01
          0                 2           2             5    6     1      -0.1027756210E+00       5    8    1        -0.5660807151E+01      0.1372155272E+02
          0                 3           2             4    7     1       0.6473427567E-01       5    8    1         0.3583915548E+01      0.8766488932E+01
          0                 4           2             4    7     1      -0.9564396928E-01       5    8    1        -0.5424253009E+01      0.1328618527E+02
          0                 5           2             4    7     1       0.1179276719E-02       4    7    1         0.6872686308E-01      0.1683801721E+00
          0                 6           1             4    7     1       0.1734388862E-04       5    8    1         0.1012757271E-02      0.2483223427E-02

    ------------------------------------------------
       NWT REQUIRED            6 OUTER ITERATIONS 
       AND A TOTAL OF         11 INNER ITERATIONS.
    ------------------------------------------------

 NO OUTPUT CONTROL FOR STRESS PERIOD   42   TIME STEP   28
 
 SOLVING FOR HEAD 
                                                   Max.-Head-Change                         Max.-Flux-Residual
  Residual-Control   Outer-Iter.   Inner-Iter.     Column Row Layer    Maximum-Head-Change  Column Row Layer    Maximum-Flux-Residual          L2-NORM 
          0                 1           2             5    8     1       0.7083688290E-01       5    8    1         0.3865823303E+01      0.9117609838E+01
          0                 2           2             5    6     1      -0.1028415621E+00       5    8    1        -0.5664285948E+01      0.1373270435E+02
          0                 3           2             4    7     1       0.6474195875E-01       5    8    1         0.3584159073E+01      0.8767263925E+01
          0                 4           2             4    7     1      -0.9564451554E-01       5    8    1        -0.5424262993E+01      0.1328621699E+02
          0                 5           2             4    7     1       0.1179283453E-02       4    7    1         0.6872708186E-01      0.1683805566E+00
          0                 6           1             4    7     1       0.1734398765E-04       5    8    1         0.1012759021E-02      0.2483228137E-02

    ------------------------------------------------
       NWT REQUIRED            6 OUTER ITERATIONS 
       AND A TOTAL OF         11 INNER ITERATIONS.
    ------------------------------------------------

 NO OUTPUT CONTROL FOR STRESS PERIOD   42   TIME STEP   29
 
 SOLVING FOR HEAD 
                                                   Max.-Head-Change                         Max.-Flux-Residual
  Residual-Control   Outer-Iter.   Inner-Iter.     Column Row Layer    Maximum-Head-Change  Column Row Layer    Maximum-Flux-Residual          L2-NORM 
          0                 1           2             5    8     1       0.7147759876E-01       5    8    1         0.3899850941E+01      0.9218416409E+01
          0                 2           2             5    7     1      -0.1029159646E+00       5    8    1        -0.5667688619E+01      0.1374362979E+02
          0                 3           2             4    7     1       0.6474951859E-01       5    8    1         0.3584397270E+01      0.8768023502E+01
          0                 4           2             4    7     1      -0.9564505460E-01       5    8    1        -0.5424272758E+01      0.1328624808E+02
          0                 5           2             4    7     1       0.1179290098E-02       4    7    1         0.6872729711E-01      0.1683809340E+00
          0                 6           1             4    7     1       0.1734408577E-04       5    8    1         0.1012760741E-02      0.2483233580E-02

    ------------------------------------------------
       NWT REQUIRED            6 OUTER ITERATIONS 
       AND A TOTAL OF         11 INNER ITERATIONS.
    ------------------------------------------------

 NO OUTPUT CONTROL FOR STRESS PERIOD   42   TIME STEP   30



 STREAM LISTING     PERIOD     42   STEP       30

 LAYER ROW COL. STREAM  RCH.  FLOW INTO     FLOW TO   FLOW OUT OF   OVRLND.     DIRECT     STREAM       STREAM     STREAM     STREAM   STREAMBED  STREAMBED
                SEG.NO.  NO.  STRM. RCH.    AQUIFER    STRM. RCH.    RUNOFF     PRECIP       ET          HEAD       DEPTH      WIDTH   CONDCTNC.   GRADIENT

   1    1    1     1     1    2.3624E+01  2.3872E-01   2.3386E+01  0.000E+00  0.000E+00  0.000E+00  1.09421E+03  1.157E+00  1.276E+01  5.742E-02  1.386E+00
   1    2    2     1     2    2.3386E+01  3.6908E-01   2.3016E+01  0.000E+00  0.000E+00  0.000E+00  1.08921E+03  1.153E+00  1.270E+01  8.888E-02  1.384E+00
   1    3    3     1     3    2.3016E+01  3.1417E-01   2.2702E+01  0.000E+00  0.000E+00  0.000E+00  1.08357E+03  1.147E+00  1.263E+01  7.575E-02  1.382E+00
   1    3    4     1     4    2.2702E+01  2.8881E-01   2.2414E+01  0.000E+00  0.000E+00  0.000E+00  1.07855E+03  1.143E+00  1.256E+01  6.972E-02  1.381E+00
   1    4    5     2     1    2.0414E+01  3.1702E-01   2.0096E+01  0.000E+00  0.000E+00  0.000E+00  1.07300E+03  1.064E+00  1.200E+01  7.800E-02  1.355E+00
   1    5    6     2     2    2.0096E+01  2.4333E-01   1.9853E+01  0.000E+00  0.000E+00  0.000E+00  1.06756E+03  1.055E+00  1.200E+01  6.000E-02  1.352E+00
   1    6    6     2     3    1.9853E+01  2.4286E-01   1.9610E+01  0.000E+00  0.000E+00  0.000E+00  1.06284E+03  1.048E+00  1.200E+01  6.000E-02  1.349E+00
   1    7    6     2     4    1.9610E+01  2.4240E-01   1.9368E+01  0.000E+00  0.000E+00  0.000E+00  1.05812E+03  1.040E+00  1.200E+01  6.000E-02  1.347E+00
   1    8    6     2     5    1.9368E+01  2.4193E-01   1.9126E+01  0.000E+00  0.000E+00  0.000E+00  1.05339E+03  1.032E+00  1.200E+01  6.000E-02  1.344E+00
   1    3    5     3     1    2.0000E+00  2.8252E-01   1.7175E+00  0.000E+00  0.000E+00  0.000E+00  1.07555E+03  1.909E+00  9.636E+00  7.227E-02  1.955E+00
   1    3    6     3     2    1.7175E+00  2.4905E-01   1.4684E+00  0.000E+00  0.000E+00  0.000E+00  1.07264E+03  1.727E+00  8.909E+00  6.682E-02  1.864E+00
   1    3    7     3     3    1.4684E+00  1.9718E-01   1.2712E+00  0.000E+00  0.000E+00  0.000E+00  1.06987E+03  1.555E+00  8.218E+00  5.547E-02  1.777E+00
   1    4    8     3     4    1.2712E+00  2.2567E-01   1.0456E+00  0.000E+00  0.000E+00  0.000E+00  1.06682E+03  1.364E+00  7.455E+00  6.709E-02  1.682E+00
   1    5    8     3     5    1.0456E+00  1.5790E-01   8.8768E-01  0.000E+00  0.000E+00  0.000E+00  1.06362E+03  1.164E+00  6.655E+00  4.991E-02  1.582E+00
   1    6    8     3     6    8.8768E-01  5.5980E-02   8.3170E-01  0.000E+00  0.000E+00  0.000E+00  1.06158E+03  1.036E+00  6.145E+00  1.844E-02  1.518E+00
   1    5   10     4     1    1.0000E+01  9.0919E-02   9.9091E+00  0.000E+00  0.000E+00  0.000E+00  1.07836E+03  6.368E-01  1.000E+01  2.500E-02  1.212E+00
   1    5    9     4     2    9.9091E+00  1.8158E-01   9.7275E+00  0.000E+00  0.000E+00  0.000E+00  1.07154E+03  6.315E-01  1.000E+01  5.000E-02  1.211E+00
   1    6    8     4     3    9.7275E+00  1.2689E-01   9.6006E+00  0.000E+00  0.000E+00  0.000E+00  1.06381E+03  6.256E-01  1.000E+01  3.500E-02  1.209E+00
   1    6    8     5     1    1.0432E+01  2.2686E-01   1.0205E+01  0.000E+00  0.000E+00  0.000E+00  1.05868E+03  6.790E-01  1.542E+01  6.166E-02  1.226E+00
   1    7    7     5     2    1.0205E+01  2.7894E-01   9.9265E+00  0.000E+00  0.000E+00  0.000E+00  1.05417E+03  6.732E-01  1.519E+01  7.594E-02  1.224E+00
   1    8    7     5     3    9.9265E+00  1.9221E-01   9.7343E+00  0.000E+00  0.000E+00  0.000E+00  1.04992E+03  6.676E-01  1.497E+01  5.241E-02  1.223E+00
   1    8    6     5     4    9.7343E+00  1.3577E-01   9.5985E+00  0.000E+00  0.000E+00  0.000E+00  1.04691E+03  6.637E-01  1.482E+01  3.706E-02  1.221E+00
   1    9    6     6     1    9.5985E+00  2.2097E-01   9.3776E+00  0.000E+00  0.000E+00  0.000E+00  1.04341E+03  6.828E-01  1.200E+01  6.000E-02  1.228E+00
   1   10    7     6     2    9.3776E+00  2.2039E-01   9.1572E+00  0.000E+00  0.000E+00  0.000E+00  1.03885E+03  6.732E-01  1.200E+01  6.000E-02  1.224E+00
   1   11    7     6     3    9.1572E+00  2.1981E-01   8.9374E+00  0.000E+00  0.000E+00  0.000E+00  1.03430E+03  6.636E-01  1.200E+01  6.000E-02  1.221E+00
   1   12    7     6     4    8.9374E+00  2.1923E-01   8.7181E+00  0.000E+00  0.000E+00  0.000E+00  1.02974E+03  6.539E-01  1.200E+01  6.000E-02  1.218E+00
   1   13    7     6     5    8.7181E+00  2.3082E-03   8.7158E+00  0.000E+00  0.000E+00  0.000E+00  1.02656E+03  6.489E-01  1.200E+01  2.400E-02  3.206E-02
   1   14    9     7     1    1.5000E+02  1.4106E+00   1.4859E+02  0.000E+00  0.000E+00  0.000E+00  1.03987E+03  2.288E+00  5.529E+01  5.593E-01  8.407E-01
   1   13    8     7     2    1.4859E+02  2.0477E+00   1.4654E+02  0.000E+00  0.000E+00  0.000E+00  1.03478E+03  2.278E+00  5.525E+01  6.147E-01  1.110E+00
   1   13    7     7     3    1.4654E+02  1.8009E+00   1.4474E+02  0.000E+00  0.000E+00  0.000E+00  1.02969E+03  2.268E+00  5.521E+01  5.583E-01  1.075E+00
   1   13    6     8     1    1.5346E+02  1.1362E+00   1.5232E+02  0.000E+00  0.000E+00  0.000E+00  1.02471E+03  2.837E+00  4.114E+01  4.192E-01  9.034E-01
   1   13    5     8     2    1.5232E+02  3.7681E-01   1.5194E+02  0.000E+00  0.000E+00  0.000E+00  1.01846E+03  2.832E+00  4.106E+01  4.184E-01  3.002E-01
   1   13    4     8     3    1.5194E+02 -1.7535E+00   1.5370E+02  0.000E+00  0.000E+00  0.000E+00  1.01221E+03  2.837E+00  4.113E+01  4.191E+00 -1.395E-01
   1   13    3     8     4    1.5370E+02 -3.3118E+00   1.5701E+02  0.000E+00  0.000E+00  0.000E+00  1.00598E+03  2.854E+00  4.138E+01  4.217E+00 -2.618E-01
   1   13    2     8     5    1.5701E+02 -2.5342E+00   1.5954E+02  0.000E+00  0.000E+00  0.000E+00  9.99749E+02  2.874E+00  4.168E+01  4.247E+00 -1.989E-01
   1   13    1     8     6    1.5954E+02 -2.0207E+00   1.6156E+02  0.000E+00  0.000E+00  0.000E+00  9.94765E+02  2.890E+00  4.190E+01  2.562E+00 -2.629E-01
   1    8    6     9     1    1.9126E+01  0.0000E+00   1.9126E+01  0.000E+00  0.000E+00  0.000E+00  1.08209E+03  3.344E+00  4.000E+00  0.000E+00  2.115E+00
   1    8    5     9     2    1.9126E+01  0.0000E+00   1.9126E+01  0.000E+00  0.000E+00  0.000E+00  1.08159E+03  3.344E+00  4.000E+00  0.000E+00  2.115E+00





UNSATURATED ZONE PACKAGE VOLUMETRIC BUDGET FOR  TIME STEP    30 STRESS PERIOD   42
  ------------------------------------------------------------------------------



     CUMULATIVE VOLUMES      L**3       RATES FOR THIS TIME STEP      L**3/T
     ------------------                 ------------------------

           IN:                                      IN:
           ---                                      ---
        INFILTRATION =  6442470575.5941          INFILTRATION =          64.1804

          OUT:                                     OUT:
          ----                                     ----
              UZF ET =  1319098042.3476                UZF ET =           8.3175
        UZF RECHARGE =  4537010042.2375          UZF RECHARGE =       0.0000E+00

            IN - OUT =   586362491.0090              IN - OUT =          55.8629

          STORAGE:                                 STORAGE:
          --------                                 --------
      STORAGE CHANGE =   586397677.7497        STORAGE CHANGE =          55.8629

 PERCENT DISCREPANCY IS DIFFERENCE BETWEEN IN-OUT MINUS CHANGE IN STORAGE
 DIVIDED BY THE AVERAGE OF IN AND OUT TIMES 100

 PERCENT DISCREPANCY =          -0.00     PERCENT DISCREPANCY =           0.00






1
  VOLUMETRIC BUDGET FOR AGRICULTURAL FIELDS AT  END OF TIME STEP   30, STRESS PERIOD  42
  ------------------------------------------------------------------------------

     CUMULATIVE VOLUMES      L**3       RATES FOR THIS TIME STEP      L**3/T
     ------------------                 ------------------------

           IN:                                      IN:
           ---                                      ---
               AG WELLS  =  5513724416.0000                 AG WELLS  =          44.2065
      DIVERSION SEGMENTS =   837300736.0000        DIVERSION SEGMENTS =          19.1260
           GW IRRIGATION =           0.0000             GW IRRIGATION =           0.0000
           SW IRRIGATION =           0.0000             SW IRRIGATION =           0.0000
        SYSTEM LOSSES GW =           0.0000          SYSTEM LOSSES GW =           0.0000
        SYSTEM LOSSES SW =           0.0000          SYSTEM LOSSES SW =           0.0000

                TOTAL IN =  6351025152.0000                  TOTAL IN =          63.3325

          OUT:                                     OUT:
          ----                                     ----
               AG WELLS  =           0.0000                 AG WELLS  =           0.0000
      DIVERSION SEGMENTS =           0.0000        DIVERSION SEGMENTS =           0.0000
           GW IRRIGATION =  5513724416.0000             GW IRRIGATION =          44.2065
           SW IRRIGATION =   837316032.0000             SW IRRIGATION =          19.1264
        SYSTEM LOSSES GW =           0.0000          SYSTEM LOSSES GW =           0.0000
        SYSTEM LOSSES SW =           0.0000          SYSTEM LOSSES SW =           0.0000

               TOTAL OUT =  6351040512.0000                 TOTAL OUT =          63.3329

                IN - OUT =      -15360.0000                  IN - OUT =      -3.8147E-04

     PERCENT DISCREPANCY =          -0.00         PERCENT DISCREPANCY =          -0.00



1
  VOLUMETRIC BUDGET FOR ENTIRE MODEL AT END OF TIME STEP   30, STRESS PERIOD  42
  ------------------------------------------------------------------------------

     CUMULATIVE VOLUMES      L**3       RATES FOR THIS TIME STEP      L**3/T
     ------------------                 ------------------------

           IN:                                      IN:
           ---                                      ---
             STORAGE     =  5472197120.0000               STORAGE     =          42.7081
       CONSTANT HEAD     =           0.0000         CONSTANT HEAD     =           0.0000
     HEAD DEP BOUNDS     =    31201288.0000       HEAD DEP BOUNDS     =           0.2908
      STREAM LEAKAGE     =  1308263552.0000        STREAM LEAKAGE     =          12.5546
        UZF RECHARGE     =  4537008128.0000          UZF RECHARGE     =           0.0000
               GW ET     =           0.0000                 GW ET     =           0.0000
     SURFACE LEAKAGE     =           0.0000       SURFACE LEAKAGE     =           0.0000
           AG WELLS      =           0.0000             AG WELLS      =           0.0000

                TOTAL IN = 11348670464.0000                  TOTAL IN =          55.5536

          OUT:                                     OUT:
          ----                                     ----
             STORAGE     =  4762605056.0000               STORAGE     =           1.4399
       CONSTANT HEAD     =           0.0000         CONSTANT HEAD     =           0.0000
     HEAD DEP BOUNDS     =    31012754.0000       HEAD DEP BOUNDS     =           0.2870
      STREAM LEAKAGE     =  1041203776.0000        STREAM LEAKAGE     =           9.6201
        UZF RECHARGE     =           0.0000          UZF RECHARGE     =           0.0000
               GW ET     =           0.0000                 GW ET     =           0.0000
     SURFACE LEAKAGE     =           0.0000       SURFACE LEAKAGE     =           0.0000
           AG WELLS      =  5513724416.0000             AG WELLS      =          44.2065

               TOTAL OUT = 11348545536.0000                 TOTAL OUT =          55.5535

                IN - OUT =      124928.0000                  IN - OUT =       8.3923E-05

     PERCENT DISCREPANCY =           0.00         PERCENT DISCREPANCY =           0.00






         TIME SUMMARY AT END OF TIME STEP   30 IN STRESS PERIOD   42
                    SECONDS     MINUTES      HOURS       DAYS        YEARS
                    -----------------------------------------------------------
   TIME STEP LENGTH  87667.      1461.1      24.352      1.0147     2.77799E-03
 STRESS PERIOD TIME 2.63000E+06  43833.      730.56      30.440     8.33397E-02
         TOTAL TIME 1.07916E+08 1.79859E+06  29977.      1249.0      3.4196    
1
1
                            STRESS PERIOD NO.   43, LENGTH =   2630000.    
                            -----------------------------------------------

                              NUMBER OF TIME STEPS =    30

                               MULTIPLIER FOR DELT =     1.000

                            INITIAL TIME STEP SIZE =   87666.66    

 REUSING NON-PARAMETER GHB CELLS FROM LAST STRESS PERIOD

      2 GHB CELLS

 REUSING STREAM SEGMENT DATA FROM LAST STRESS PERIOD



            AREAL INFILTRATION RATE
 READING ON UNIT   19 WITH FORMAT: (FREE)              

            1           2           3           4           5           6           7           8           9          10
 ........................................................................................................................
   1   1.0000E-10  2.0000E-10   0.000       0.000       0.000       0.000       0.000       0.000       0.000       0.000    
   2   2.0000E-10  1.0000E-10  2.0000E-10   0.000       0.000      8.0000E-10  8.0000E-10  5.0000E-10   0.000       0.000    
   3    0.000      5.0000E-10  1.0000E-10  1.0000E-10  8.0000E-10  8.0000E-10  5.0000E-10  5.0000E-10   0.000       0.000    
   4   8.0000E-10  5.0000E-10  1.0000E-10  1.0000E-10  1.0000E-10  1.0000E-10  1.0000E-10  1.0000E-10  2.0000E-10   0.000    
   5   8.0000E-10  5.0000E-10  1.0000E-10  1.0000E-10  1.0000E-10  1.0000E-10  1.0000E-10  1.0000E-10  1.0000E-10  1.0000E-10
   6   8.0000E-10  5.0000E-10  5.0000E-10  2.0000E-10  2.0000E-10  1.0000E-10  1.0000E-10  1.0000E-10  1.0000E-10  5.0000E-10
   7   8.0000E-10  5.0000E-10  5.0000E-10  2.0000E-10  2.0000E-10  1.0000E-10  1.0000E-10  2.0000E-10  2.0000E-10   0.000    
   8    0.000      5.0000E-10  5.0000E-10  2.0000E-10  2.0000E-10  1.0000E-10  1.0000E-10  2.0000E-10  5.0000E-10   0.000    
   9    0.000      5.0000E-10  5.0000E-10  2.0000E-10  2.0000E-10  1.0000E-10  1.0000E-10  2.0000E-10  5.0000E-10   0.000    
  10    0.000      5.0000E-10  5.0000E-10  2.0000E-10  2.0000E-10  1.0000E-10  1.0000E-10  2.0000E-10  5.0000E-10  8.0000E-10
  11    0.000      1.0000E-10  1.0000E-10  1.0000E-10  1.0000E-10  1.0000E-10  1.0000E-10  2.0000E-10  5.0000E-10   0.000    
  12   1.0000E-10  1.0000E-10  1.0000E-10  1.0000E-10  1.0000E-10  1.0000E-10  1.0000E-10  1.0000E-10  2.0000E-10   0.000    
  13   1.0000E-10  1.0000E-10  2.0000E-10  2.0000E-10  2.0000E-10  2.0000E-10  2.0000E-10  1.0000E-10  1.0000E-10   0.000    
  14    0.000      2.0000E-10  5.0000E-10  5.0000E-10  5.0000E-10  5.0000E-10  5.0000E-10  2.0000E-10  1.0000E-10   0.000    
  15    0.000       0.000      8.0000E-10  8.0000E-10  8.0000E-10  8.0000E-10   0.000       0.000       0.000       0.000    

                  ET RATE =  1.500000E-07

 USING ET EXTINCTION DEPTH FROM PREVIOUS STRESS PERIOD. CURRENT PERIOD IS:      43

 USING EXTINCTION WATER CONTENT FROM PREVIOUS STRESS PERIOD. CURRENT PERIOD IS:      43

 USING AIR ENTRY PRESSURE FROM PREVIOUS STRESS PERIOD. CURRENT PERIOD IS:      43

 USING ROOT PRESSURE HEAD FROM PREVIOUS STRESS PERIOD. CURRENT PERIOD IS:      43

 USING ROOT ACTIVITY FROM PREVIOUS STRESS PERIOD. CURRENT PERIOD IS:      43

 PROCESSING AG STRESS PERIOD DATA

 READING AG STRESS PERIOD DATA

 READING IRRIGATION SEGMENT

 READING IRRIGATION WELL

 READING SUPPLEMENTAL WELL

 END PROCESSING AG STRESS PERIOD DATA OPTIONS
 
 SOLVING FOR HEAD 
                                                   Max.-Head-Change                         Max.-Flux-Residual
  Residual-Control   Outer-Iter.   Inner-Iter.     Column Row Layer    Maximum-Head-Change  Column Row Layer    Maximum-Flux-Residual          L2-NORM 
          0                 1           2             5    8     1       0.7210430175E-01       5    8    1         0.3933143582E+01      0.9294287414E+01
          0                 2           2             5    8     1      -0.1742949450E-01       5    8    1        -0.9667747829E+00      0.2249893181E+01
          0                 3           2             4    7     1      -0.1000657538E-02       4    7    1        -0.5393226358E-01      0.1191101051E+00
          0                 4           2             5    6     1      -0.3254101690E-03       5    8    1        -0.1793090177E-01      0.4311481863E-01
          0                 5           1             4    7     1      -0.5182525976E-04       4    7    1        -0.2782658321E-02      0.6729611917E-02

    ------------------------------------------------
       NWT REQUIRED            5 OUTER ITERATIONS 
       AND A TOTAL OF          9 INNER ITERATIONS.
    ------------------------------------------------

 NO OUTPUT CONTROL FOR STRESS PERIOD   43   TIME STEP    1
 
 SOLVING FOR HEAD 
                                                   Max.-Head-Change                         Max.-Flux-Residual
  Residual-Control   Outer-Iter.   Inner-Iter.     Column Row Layer    Maximum-Head-Change  Column Row Layer    Maximum-Flux-Residual          L2-NORM 
          0                 1           2             5    8     1       0.6913305393E-01       5    8    1         0.3767960499E+01      0.9012655341E+01
          0                 2           2             5    8     1      -0.6724686876E-02       5    8    1        -0.3767909187E+00      0.9011293889E+00
          0                 3           2             5    8     1       0.4579269748E-03       5    8    1         0.2637542446E-01      0.6306869618E-01
          0                 4           1             5    8     1      -0.1822133983E-04       5    8    1        -0.1078756140E-02      0.2578807823E-02

    ------------------------------------------------
       NWT REQUIRED            4 OUTER ITERATIONS 
       AND A TOTAL OF          7 INNER ITERATIONS.
    ------------------------------------------------

 NO OUTPUT CONTROL FOR STRESS PERIOD   43   TIME STEP    2
 
 SOLVING FOR HEAD 
     PET DIFF ERROR     6    4    0.4850814536E-08    0.1500000053E-06
     PET DIFF ERROR     6    5    0.4850726356E-08    0.1500000053E-06
     PET DIFF ERROR     7    4    0.4850814488E-08    0.1500000053E-06
     PET DIFF ERROR     7    5    0.4850814488E-08    0.1500000053E-06
     PET DIFF ERROR     8    4    0.4850814488E-08    0.1500000053E-06
     PET DIFF ERROR     8    5    0.4850814488E-08    0.1500000053E-06
                                                   Max.-Head-Change                         Max.-Flux-Residual
  Residual-Control   Outer-Iter.   Inner-Iter.     Column Row Layer    Maximum-Head-Change  Column Row Layer    Maximum-Flux-Residual          L2-NORM 
          0                 1           2             5    8     1       0.6597383915E-01       5    8    1         0.3592543213E+01      0.8683551747E+01
     PET DIFF ERROR     6    4    0.4850811721E-08    0.1500000053E-06
     PET DIFF ERROR     6    5    0.4850811674E-08    0.1500000053E-06
     PET DIFF ERROR     7    4    0.4850811674E-08    0.1500000053E-06
     PET DIFF ERROR     7    5    0.4850811674E-08    0.1500000053E-06
     PET DIFF ERROR     8    4    0.4850723541E-08    0.1500000053E-06
     PET DIFF ERROR     8    5    0.4850811674E-08    0.1500000053E-06
          0                 2           2             5    8     1      -0.6417387444E-02       5    8    1        -0.3592496133E+00      0.8682347641E+00
     PET DIFF ERROR     6    4    0.4850811721E-08    0.1500000053E-06
     PET DIFF ERROR     6    5    0.4850811674E-08    0.1500000053E-06
     PET DIFF ERROR     7    4    0.4850811674E-08    0.1500000053E-06
     PET DIFF ERROR     7    5    0.4850811674E-08    0.1500000053E-06
     PET DIFF ERROR     8    4    0.4850723541E-08    0.1500000053E-06
     PET DIFF ERROR     8    5    0.4850811674E-08    0.1500000053E-06
          0                 3           2             5    8     1       0.4370009597E-03       5    8    1         0.2514752834E-01      0.6076724910E-01
     PET DIFF ERROR     6    4    0.4850811721E-08    0.1500000053E-06
     PET DIFF ERROR     6    5    0.4850811674E-08    0.1500000053E-06
     PET DIFF ERROR     7    4    0.4850811674E-08    0.1500000053E-06
     PET DIFF ERROR     7    5    0.4850811674E-08    0.1500000053E-06
     PET DIFF ERROR     8    4    0.4850723541E-08    0.1500000053E-06
     PET DIFF ERROR     8    5    0.4850811674E-08    0.1500000053E-06
          0                 4           1             5    8     1      -0.1738867405E-04       5    8    1        -0.1028535125E-02      0.2484811105E-02

    ------------------------------------------------
       NWT REQUIRED            4 OUTER ITERATIONS 
       AND A TOTAL OF          7 INNER ITERATIONS.
    ------------------------------------------------

 NO OUTPUT CONTROL FOR STRESS PERIOD   43   TIME STEP    3
     PET DIFF ERROR     6    4    0.4850811721E-08    0.1500000053E-06
     PET DIFF ERROR     6    5    0.4850811674E-08    0.1500000053E-06
     PET DIFF ERROR     7    4    0.4850811674E-08    0.1500000053E-06
     PET DIFF ERROR     7    5    0.4850811674E-08    0.1500000053E-06
     PET DIFF ERROR     8    4    0.4850723541E-08    0.1500000053E-06
     PET DIFF ERROR     8    5    0.4850811674E-08    0.1500000053E-06
 
 SOLVING FOR HEAD 
                                                   Max.-Head-Change                         Max.-Flux-Residual
  Residual-Control   Outer-Iter.   Inner-Iter.     Column Row Layer    Maximum-Head-Change  Column Row Layer    Maximum-Flux-Residual          L2-NORM 
          0                 1           2             5    8     1       0.6301498943E-01       5    8    1         0.3428366185E+01      0.8373781225E+01
          0                 2           2             5    7     1      -0.7441141122E-01       5    8    1        -0.4087832428E+01      0.9938697618E+01
          0                 3           2             4    7     1       0.5735137354E-01       5    8    1         0.3172193203E+01      0.7762670901E+01
          0                 4           2             4    7     1      -0.2282083433E-02       5    6    1        -0.1297101752E+00      0.3174526969E+00
          0                 5           1             4    7     1       0.2813904786E-04       5    6    1         0.1641746264E-02      0.4025661086E-02

    ------------------------------------------------
       NWT REQUIRED            5 OUTER ITERATIONS 
       AND A TOTAL OF          9 INNER ITERATIONS.
    ------------------------------------------------

 NO OUTPUT CONTROL FOR STRESS PERIOD   43   TIME STEP    4
 
 SOLVING FOR HEAD 
                                                   Max.-Head-Change                         Max.-Flux-Residual
  Residual-Control   Outer-Iter.   Inner-Iter.     Column Row Layer    Maximum-Head-Change  Column Row Layer    Maximum-Flux-Residual          L2-NORM 
          0                 1           2             5    6     1       0.6080153981E-01       5    8    1         0.3300105245E+01      0.8135570777E+01
          0                 2           2             5    7     1      -0.5848060282E-01       5    8    1        -0.3216053151E+01      0.7827348089E+01
          0                 3           2             4    7     1       0.4678618650E-01       5    8    1         0.2588332819E+01      0.6333594707E+01
          0                 4           2             4    7     1      -0.1861678482E-02       5    6    1        -0.1058387332E+00      0.2590102647E+00
          0                 5           1             4    7     1       0.2295528298E-04       5    6    1         0.1339668970E-02      0.3284157483E-02

    ------------------------------------------------
       NWT REQUIRED            5 OUTER ITERATIONS 
       AND A TOTAL OF          9 INNER ITERATIONS.
    ------------------------------------------------

 NO OUTPUT CONTROL FOR STRESS PERIOD   43   TIME STEP    5
 
 SOLVING FOR HEAD 
                                                   Max.-Head-Change                         Max.-Flux-Residual
  Residual-Control   Outer-Iter.   Inner-Iter.     Column Row Layer    Maximum-Head-Change  Column Row Layer    Maximum-Flux-Residual          L2-NORM 
          0                 1           2             5    6     1       0.5857627898E-01       5    6    1         0.3174563194E+01      0.7891421398E+01
          0                 2           2             5    7     1      -0.5838362621E-01       5    6    1        -0.3203498872E+01      0.7809261141E+01
          0                 3           2             4    7     1       0.4142588909E-01       5    6    1         0.2291675141E+01      0.5607898549E+01
          0                 4           2             4    7     1      -0.1648384557E-02       5    6    1        -0.9370921206E-01      0.2293328510E+00
          0                 5           1             4    7     1       0.2032528048E-04       5    6    1         0.1186164431E-02      0.2907699978E-02

    ------------------------------------------------
       NWT REQUIRED            5 OUTER ITERATIONS 
       AND A TOTAL OF          9 INNER ITERATIONS.
    ------------------------------------------------

 NO OUTPUT CONTROL FOR STRESS PERIOD   43   TIME STEP    6
 
 SOLVING FOR HEAD 
                                                   Max.-Head-Change                         Max.-Flux-Residual
  Residual-Control   Outer-Iter.   Inner-Iter.     Column Row Layer    Maximum-Head-Change  Column Row Layer    Maximum-Flux-Residual          L2-NORM 
          0                 1           2             5    6     1       0.5663043253E-01       5    6    1         0.3067190676E+01      0.7677942359E+01
          0                 2           2             5    7     1      -0.5829607586E-01       5    6    1        -0.3192761874E+01      0.7793384039E+01
          0                 3           2             4    7     1       0.4083662349E-01       5    6    1         0.2258368627E+01      0.5527083249E+01
          0                 4           2             4    7     1      -0.1624936880E-02       5    6    1        -0.9234700960E-01      0.2260278960E+00
          0                 5           1             4    7     1       0.2003616090E-04       5    6    1         0.1168904510E-02      0.2865891862E-02

    ------------------------------------------------
       NWT REQUIRED            5 OUTER ITERATIONS 
       AND A TOTAL OF          9 INNER ITERATIONS.
    ------------------------------------------------

 NO OUTPUT CONTROL FOR STRESS PERIOD   43   TIME STEP    7
 
 SOLVING FOR HEAD 
                                                   Max.-Head-Change                         Max.-Flux-Residual
  Residual-Control   Outer-Iter.   Inner-Iter.     Column Row Layer    Maximum-Head-Change  Column Row Layer    Maximum-Flux-Residual          L2-NORM 
          0                 1           2             5    6     1       0.5481332683E-01       5    6    1         0.2966974408E+01      0.7478055160E+01
          0                 2           2             5    7     1      -0.5821088248E-01       5    6    1        -0.3182740479E+01      0.7778373080E+01
          0                 3           2             4    7     1       0.4072510706E-01       5    6    1         0.2251485113E+01      0.5510920662E+01
          0                 4           2             4    7     1      -0.1620499513E-02       5    6    1        -0.9206522920E-01      0.2253669491E+00
          0                 5           1             4    7     1       0.1998144624E-04       5    7    1         0.1165324740E-02      0.2857625169E-02

    ------------------------------------------------
       NWT REQUIRED            5 OUTER ITERATIONS 
       AND A TOTAL OF          9 INNER ITERATIONS.
    ------------------------------------------------

 NO OUTPUT CONTROL FOR STRESS PERIOD   43   TIME STEP    8
 
 SOLVING FOR HEAD 
                                                   Max.-Head-Change                         Max.-Flux-Residual
  Residual-Control   Outer-Iter.   Inner-Iter.     Column Row Layer    Maximum-Head-Change  Column Row Layer    Maximum-Flux-Residual          L2-NORM 
          0                 1           2             5    6     1       0.5310332288E-01       5    6    1         0.2872716586E+01      0.7289316910E+01
          0                 2           2             5    7     1      -0.5812741518E-01       5    6    1        -0.3173314911E+01      0.7764049847E+01
          0                 3           2             4    7     1       0.4070302148E-01       5    6    1         0.2249592520E+01      0.5506925014E+01
          0                 4           2             4    7     1      -0.1619620723E-02       5    6    1        -0.9198754075E-01      0.2252035745E+00
          0                 5           1             4    7     1       0.1997061060E-04       5    7    1         0.1164506452E-02      0.2855671836E-02

    ------------------------------------------------
       NWT REQUIRED            5 OUTER ITERATIONS 
       AND A TOTAL OF          9 INNER ITERATIONS.
    ------------------------------------------------

 NO OUTPUT CONTROL FOR STRESS PERIOD   43   TIME STEP    9
 
 SOLVING FOR HEAD 
                                                   Max.-Head-Change                         Max.-Flux-Residual
  Residual-Control   Outer-Iter.   Inner-Iter.     Column Row Layer    Maximum-Head-Change  Column Row Layer    Maximum-Flux-Residual          L2-NORM 
          0                 1           2             5    6     1       0.5149076212E-01       5    6    1         0.2783878411E+01      0.7110707614E+01
          0                 2           2             4    7     1      -0.5805365343E-01       5    6    1        -0.3164431291E+01      0.7750366292E+01
          0                 3           2             4    7     1       0.4069852178E-01       5    6    1         0.2248722412E+01      0.5505381682E+01
          0                 4           2             4    7     1      -0.1619441698E-02       5    6    1        -0.9195167898E-01      0.2251404917E+00
          0                 5           1             4    7     1       0.1996840279E-04       5    7    1         0.1164201743E-02      0.2854979408E-02

    ------------------------------------------------
       NWT REQUIRED            5 OUTER ITERATIONS 
       AND A TOTAL OF          9 INNER ITERATIONS.
    ------------------------------------------------

 NO OUTPUT CONTROL FOR STRESS PERIOD   43   TIME STEP   10
 
 SOLVING FOR HEAD 
                                                   Max.-Head-Change                         Max.-Flux-Residual
  Residual-Control   Outer-Iter.   Inner-Iter.     Column Row Layer    Maximum-Head-Change  Column Row Layer    Maximum-Flux-Residual          L2-NORM 
          0                 1           2             5    6     1       0.4996869045E-01       5    6    1         0.2700070944E+01      0.6941421448E+01
          0                 2           2             4    7     1      -0.5804988448E-01       5    6    1        -0.3156050727E+01      0.7737265722E+01
          0                 3           2             4    7     1       0.4069737160E-01       5    6    1         0.2248085524E+01      0.5504361608E+01
          0                 4           2             4    7     1      -0.1619619838E-02       5    6    1        -0.9193806640E-01      0.2251299320E+00
          0                 5           1             4    7     1       0.1997059962E-04       5    7    1         0.1164164258E-02      0.2854954420E-02

    ------------------------------------------------
       NWT REQUIRED            5 OUTER ITERATIONS 
       AND A TOTAL OF          9 INNER ITERATIONS.
    ------------------------------------------------

 NO OUTPUT CONTROL FOR STRESS PERIOD   43   TIME STEP   11
 
 SOLVING FOR HEAD 
                                                   Max.-Head-Change                         Max.-Flux-Residual
  Residual-Control   Outer-Iter.   Inner-Iter.     Column Row Layer    Maximum-Head-Change  Column Row Layer    Maximum-Flux-Residual          L2-NORM 
          0                 1           2             5    6     1       0.4853140016E-01       5    6    1         0.2620974178E+01      0.6780810317E+01
          0                 2           2             4    7     1      -0.5804292451E-01       5    6    1        -0.3148141220E+01      0.7724719670E+01
          0                 3           2             4    7     1       0.4069691213E-01       5    6    1         0.2247531857E+01      0.5503500875E+01
          0                 4           2             4    7     1      -0.1619601576E-02       5    6    1        -0.9191517693E-01      0.2250947928E+00
          0                 5           1             4    7     1       0.1997037391E-04       5    7    1         0.1163995926E-02      0.2854609075E-02

    ------------------------------------------------
       NWT REQUIRED            5 OUTER ITERATIONS 
       AND A TOTAL OF          9 INNER ITERATIONS.
    ------------------------------------------------

 NO OUTPUT CONTROL FOR STRESS PERIOD   43   TIME STEP   12
 
 SOLVING FOR HEAD 
                                                   Max.-Head-Change                         Max.-Flux-Residual
  Residual-Control   Outer-Iter.   Inner-Iter.     Column Row Layer    Maximum-Head-Change  Column Row Layer    Maximum-Flux-Residual          L2-NORM 
          0                 1           2             5    6     1       0.4717337367E-01       5    6    1         0.2546279523E+01      0.6628280867E+01
          0                 2           2             4    7     1      -0.5803301612E-01       5    6    1        -0.3140671911E+01      0.7712696646E+01
          0                 3           2             4    7     1       0.4069624930E-01       5    6    1         0.2247009004E+01      0.5502674559E+01
          0                 4           2             4    7     1      -0.1619575221E-02       5    6    1        -0.9189356243E-01      0.2250610717E+00
          0                 5           1             4    7     1       0.1997004929E-04       5    7    1         0.1163831575E-02      0.2854285937E-02

    ------------------------------------------------
       NWT REQUIRED            5 OUTER ITERATIONS 
       AND A TOTAL OF          9 INNER ITERATIONS.
    ------------------------------------------------

 NO OUTPUT CONTROL FOR STRESS PERIOD   43   TIME STEP   13
 
 SOLVING FOR HEAD 
                                                   Max.-Head-Change                         Max.-Flux-Residual
  Residual-Control   Outer-Iter.   Inner-Iter.     Column Row Layer    Maximum-Head-Change  Column Row Layer    Maximum-Flux-Residual          L2-NORM 
          0                 1           2             5    7     1       0.4634411685E-01       5    6    1         0.2475694624E+01      0.6483288186E+01
          0                 2           2             4    7     1      -0.5802042638E-01       5    6    1        -0.3133613567E+01      0.7701167673E+01
          0                 3           2             4    7     1       0.4069540149E-01       5    6    1         0.2246514918E+01      0.5501880891E+01
          0                 4           2             4    7     1      -0.1619541504E-02       5    7    1        -0.9188074107E-01      0.2250286755E+00
          0                 5           1             4    7     1       0.1996963349E-04       4    7    1         0.1163780045E-02      0.2853969511E-02

    ------------------------------------------------
       NWT REQUIRED            5 OUTER ITERATIONS 
       AND A TOTAL OF          9 INNER ITERATIONS.
    ------------------------------------------------

 NO OUTPUT CONTROL FOR STRESS PERIOD   43   TIME STEP   14
 
 SOLVING FOR HEAD 
                                                   Max.-Head-Change                         Max.-Flux-Residual
  Residual-Control   Outer-Iter.   Inner-Iter.     Column Row Layer    Maximum-Head-Change  Column Row Layer    Maximum-Flux-Residual          L2-NORM 
          0                 1           2             5    7     1       0.4559455023E-01       5    7    1         0.2421101379E+01      0.6345344236E+01
          0                 2           2             4    7     1      -0.5800538003E-01       5    7    1        -0.3128155535E+01      0.7690106920E+01
          0                 3           2             4    7     1       0.4069438418E-01       5    7    1         0.2246132518E+01      0.5501118315E+01
          0                 4           2             4    7     1      -0.1619501041E-02       5    7    1        -0.9186916861E-01      0.2249975637E+00
          0                 5           1             4    7     1       0.1996913458E-04       4    7    1         0.1163753560E-02      0.2853668923E-02

    ------------------------------------------------
       NWT REQUIRED            5 OUTER ITERATIONS 
       AND A TOTAL OF          9 INNER ITERATIONS.
    ------------------------------------------------

 NO OUTPUT CONTROL FOR STRESS PERIOD   43   TIME STEP   15
 
 SOLVING FOR HEAD 
                                                   Max.-Head-Change                         Max.-Flux-Residual
  Residual-Control   Outer-Iter.   Inner-Iter.     Column Row Layer    Maximum-Head-Change  Column Row Layer    Maximum-Flux-Residual          L2-NORM 
          0                 1           2             5    7     1       0.4486376909E-01       5    7    1         0.2382146972E+01      0.6213980586E+01
          0                 2           2             4    7     1      -0.5798810018E-01       5    7    1        -0.3124260251E+01      0.7679488142E+01
          0                 3           2             4    7     1       0.4069321274E-01       5    7    1         0.2245859837E+01      0.5500385214E+01
          0                 4           2             4    7     1      -0.1619454444E-02       5    7    1        -0.9185788195E-01      0.2249676672E+00
          0                 5           1             4    7     1       0.1996856017E-04       4    7    1         0.1163722384E-02      0.2853380740E-02

    ------------------------------------------------
       NWT REQUIRED            5 OUTER ITERATIONS 
       AND A TOTAL OF          9 INNER ITERATIONS.
    ------------------------------------------------

 NO OUTPUT CONTROL FOR STRESS PERIOD   43   TIME STEP   16
 
 SOLVING FOR HEAD 
                                                   Max.-Head-Change                         Max.-Flux-Residual
  Residual-Control   Outer-Iter.   Inner-Iter.     Column Row Layer    Maximum-Head-Change  Column Row Layer    Maximum-Flux-Residual          L2-NORM 
          0                 1           2             5    7     1       0.4415152552E-01       5    7    1         0.2344158441E+01      0.6088769120E+01
          0                 2           2             4    7     1      -0.5796878249E-01       5    7    1        -0.3120461537E+01      0.7669287234E+01
          0                 3           2             4    7     1       0.4069190064E-01       5    7    1         0.2245593918E+01      0.5499680134E+01
          0                 4           2             4    7     1      -0.1619402248E-02       5    7    1        -0.9184687803E-01      0.2249389174E+00
          0                 5           1             4    7     1       0.1996791653E-04       4    7    1         0.1163686897E-02      0.2853101437E-02

    ------------------------------------------------
       NWT REQUIRED            5 OUTER ITERATIONS 
       AND A TOTAL OF          9 INNER ITERATIONS.
    ------------------------------------------------

 NO OUTPUT CONTROL FOR STRESS PERIOD   43   TIME STEP   17
 
 SOLVING FOR HEAD 
                                                   Max.-Head-Change                         Max.-Flux-Residual
  Residual-Control   Outer-Iter.   Inner-Iter.     Column Row Layer    Maximum-Head-Change  Column Row Layer    Maximum-Flux-Residual          L2-NORM 
          0                 1           2             5    7     1       0.4345795665E-01       5    7    1         0.2307147419E+01      0.5969338746E+01
          0                 2           2             4    7     1      -0.5794762330E-01       5    7    1        -0.3116760560E+01      0.7659486712E+01
          0                 3           2             4    7     1       0.4069046139E-01       5    7    1         0.2245334840E+01      0.5499001812E+01
          0                 4           2             4    7     1      -0.1619344992E-02       5    7    1        -0.9183615994E-01      0.2249112458E+00
          0                 5           1             4    7     1       0.1996721039E-04       4    7    1         0.1163647501E-02      0.2852827750E-02

    ------------------------------------------------
       NWT REQUIRED            5 OUTER ITERATIONS 
       AND A TOTAL OF          9 INNER ITERATIONS.
    ------------------------------------------------

 NO OUTPUT CONTROL FOR STRESS PERIOD   43   TIME STEP   18
 
 SOLVING FOR HEAD 
                                                   Max.-Head-Change                         Max.-Flux-Residual
  Residual-Control   Outer-Iter.   Inner-Iter.     Column Row Layer    Maximum-Head-Change  Column Row Layer    Maximum-Flux-Residual          L2-NORM 
          0                 1           2             5    7     1       0.4278282635E-01       5    7    1         0.2271104687E+01      0.5855306229E+01
          0                 2           2             4    7     1      -0.5792480546E-01       5    7    1        -0.3113156398E+01      0.7650061702E+01
          0                 3           2             4    7     1       0.4068890759E-01       5    7    1         0.2245082541E+01      0.5498348399E+01
          0                 4           2             4    7     1      -0.1619283177E-02       5    7    1        -0.9182572481E-01      0.2248846180E+00
          0                 5           1             4    7     1       0.1996644801E-04       4    7    1         0.1163604589E-02      0.2852583485E-02

    ------------------------------------------------
       NWT REQUIRED            5 OUTER ITERATIONS 
       AND A TOTAL OF          9 INNER ITERATIONS.
    ------------------------------------------------

 NO OUTPUT CONTROL FOR STRESS PERIOD   43   TIME STEP   19
 
 SOLVING FOR HEAD 
                                                   Max.-Head-Change                         Max.-Flux-Residual
  Residual-Control   Outer-Iter.   Inner-Iter.     Column Row Layer    Maximum-Head-Change  Column Row Layer    Maximum-Flux-Residual          L2-NORM 
          0                 1           2             5    8     1       0.1204293054E+00       5    8    1         0.6597813170E+01      0.8496307158E+01
          0                 2           2             4    7     1      -0.5788014815E-01       5    7    1        -0.3109641069E+01      0.7006910920E+01
          0                 3           2             4    7     1       0.4068371019E-01       5    7    1         0.2244831619E+01      0.5327244724E+01
          0                 4           2             5    8     1       0.1230138608E-01       5    8    1         0.7207846700E+00      0.7494479664E+00
          0                 5           1             5    8     1       0.4758993941E-02       5    8    1         0.2776939083E+00      0.2777092874E+00
          0                 6           1             5    8     1       0.1841067751E-02       5    8    1         0.1074376251E+00      0.1074383329E+00
          0                 7           1             5    8     1       0.7122260087E-03       5    8    1         0.4156252548E-01      0.4156277670E-01
          0                 8           1             5    8     1       0.2755239112E-03       5    8    1         0.1607826907E-01      0.1607836591E-01
          0                 9           1             5    8     1       0.1065845249E-03       5    8    1         0.6219707976E-02      0.6219745441E-02
          0                10           1             5    8     1       0.4123086138E-04       5    8    1         0.2405991441E-02      0.2406005952E-02

    ------------------------------------------------
       NWT REQUIRED           10 OUTER ITERATIONS 
       AND A TOTAL OF         14 INNER ITERATIONS.
    ------------------------------------------------

 NO OUTPUT CONTROL FOR STRESS PERIOD   43   TIME STEP   20
 
 SOLVING FOR HEAD 
                                                   Max.-Head-Change                         Max.-Flux-Residual
  Residual-Control   Outer-Iter.   Inner-Iter.     Column Row Layer    Maximum-Head-Change  Column Row Layer    Maximum-Flux-Residual          L2-NORM 
          0                 1           2             5    8     1       0.1224015025E+00       5    8    1         0.6699736800E+01      0.8570809595E+01
          0                 2           2             4    7     1      -0.5786833437E-01       5    7    1        -0.3121317853E+01      0.7008592792E+01
          0                 3           2             4    7     1       0.4068311205E-01       5    7    1         0.2245653098E+01      0.5332912971E+01
          0                 4           2             5    8     1       0.1241316788E-01       5    8    1         0.7268012565E+00      0.7552403281E+00
          0                 5           1             5    8     1       0.4805525163E-02       5    8    1         0.2802366270E+00      0.2802518269E+00
          0                 6           1             5    8     1       0.1860342212E-02       5    8    1         0.1084955002E+00      0.1084961907E+00
          0                 7           1             5    8     1       0.7201754537E-03       5    8    1         0.4200051685E-01      0.4200076155E-01
          0                 8           1             5    8     1       0.2787900187E-03       5    8    1         0.1625883660E-01      0.1625893101E-01
          0                 9           1             5    8     1       0.1079218885E-03       5    8    1         0.6293867982E-02      0.6293904561E-02
          0                10           1             5    8     1       0.4177680759E-04       5    8    1         0.2436347186E-02      0.2436361346E-02

    ------------------------------------------------
       NWT REQUIRED           10 OUTER ITERATIONS 
       AND A TOTAL OF         14 INNER ITERATIONS.
    ------------------------------------------------

 NO OUTPUT CONTROL FOR STRESS PERIOD   43   TIME STEP   21
 
 SOLVING FOR HEAD 
                                                   Max.-Head-Change                         Max.-Flux-Residual
  Residual-Control   Outer-Iter.   Inner-Iter.     Column Row Layer    Maximum-Head-Change  Column Row Layer    Maximum-Flux-Residual          L2-NORM 
          0                 1           2             5    8     1       0.1125904334E+00       5    8    1         0.6148851673E+01      0.8150118311E+01
          0                 2           2             4    7     1      -0.5786081236E-01       5    7    1        -0.3126838065E+01      0.7027338565E+01
          0                 3           2             4    7     1       0.4068196755E-01       5    7    1         0.2246039231E+01      0.5309349372E+01
          0                 4           2             5    8     1       0.1193836721E-01       5    8    1         0.6991245073E+00      0.7286468549E+00
          0                 5           1             5    8     1       0.4621622802E-02       5    8    1         0.2695156299E+00      0.2695312832E+00
          0                 6           1             5    8     1       0.1789113158E-02       5    8    1         0.1043432778E+00      0.1043439462E+00
          0                 7           1             5    8     1       0.6925874343E-03       5    8    1         0.4039231442E-01      0.4039254985E-01
          0                 8           1             5    8     1       0.2681049522E-03       5    8    1         0.1563597264E-01      0.1563606348E-01
          0                 9           1             5    8     1       0.1037835380E-03       5    8    1         0.6052633594E-02      0.6052668750E-02
          0                10           1             5    8     1       0.4017403989E-04       5    8    1         0.2342918895E-02      0.2342932510E-02

    ------------------------------------------------
       NWT REQUIRED           10 OUTER ITERATIONS 
       AND A TOTAL OF         14 INNER ITERATIONS.
    ------------------------------------------------

 NO OUTPUT CONTROL FOR STRESS PERIOD   43   TIME STEP   22
 
 SOLVING FOR HEAD 
                                                   Max.-Head-Change                         Max.-Flux-Residual
  Residual-Control   Outer-Iter.   Inner-Iter.     Column Row Layer    Maximum-Head-Change  Column Row Layer    Maximum-Flux-Residual          L2-NORM 
          0                 1           2             5    8     1       0.1038137020E+00       5    8    1         0.5658908241E+01      0.7789176163E+01
          0                 2           2             4    7     1      -0.5785652410E-01       5    7    1        -0.3133254647E+01      0.7048583086E+01
          0                 3           2             4    7     1       0.4068111880E-01       5    7    1         0.2246488171E+01      0.5289269329E+01
          0                 4           2             5    8     1       0.1151892845E-01       5    8    1         0.6746616096E+00      0.7052106643E+00
          0                 5           1             5    8     1       0.4459167910E-02       5    8    1         0.2600407453E+00      0.2600567091E+00
          0                 6           1             5    8     1       0.1726192843E-02       5    8    1         0.1006737061E+00      0.1006743034E+00
          0                 7           1             5    8     1       0.6682181683E-03       5    8    1         0.3897109171E-01      0.3897129932E-01
          0                 8           1             5    8     1       0.2586667912E-03       5    8    1         0.1508554147E-01      0.1508562166E-01
          0                 9           1             5    8     1       0.1001282161E-03       5    8    1         0.5839458183E-02      0.5839490877E-02
          0                10           1             5    8     1       0.3875838576E-04       5    8    1         0.2260359887E-02      0.2260375417E-02

    ------------------------------------------------
       NWT REQUIRED           10 OUTER ITERATIONS 
       AND A TOTAL OF         14 INNER ITERATIONS.
    ------------------------------------------------

 NO OUTPUT CONTROL FOR STRESS PERIOD   43   TIME STEP   23
 
 SOLVING FOR HEAD 
                                                   Max.-Head-Change                         Max.-Flux-Residual
  Residual-Control   Outer-Iter.   Inner-Iter.     Column Row Layer    Maximum-Head-Change  Column Row Layer    Maximum-Flux-Residual          L2-NORM 
          0                 1           2             5    8     1       0.9599098797E-01       5    8    1         0.5222552621E+01      0.7478128369E+01
          0                 2           2             4    7     1      -0.5785393761E-01       5    7    1        -0.3138148553E+01      0.7070207847E+01
          0                 3           2             4    7     1       0.4068044789E-01       5    7    1         0.2246830579E+01      0.5271895584E+01
          0                 4           2             5    8     1       0.1114511936E-01       5    8    1         0.6528709213E+00      0.6843947777E+00
          0                 5           1             5    8     1       0.4314390015E-02       5    8    1         0.2516003380E+00      0.2516167251E+00
          0                 6           1             5    8     1       0.1670120524E-02       5    8    1         0.9740491875E-01      0.9740550031E-01
          0                 7           1             5    8     1       0.6465017471E-03       5    8    1         0.3770512358E-01      0.3770532462E-01
          0                 8           1             5    8     1       0.2502563006E-03       5    8    1         0.1459525298E-01      0.1459533050E-01
          0                 9           1             5    8     1       0.9687099123E-04       5    8    1         0.5649580422E-02      0.5649610465E-02

    ------------------------------------------------
       NWT REQUIRED            9 OUTER ITERATIONS 
       AND A TOTAL OF         13 INNER ITERATIONS.
    ------------------------------------------------

 NO OUTPUT CONTROL FOR STRESS PERIOD   43   TIME STEP   24
 
 SOLVING FOR HEAD 
                                                   Max.-Head-Change                         Max.-Flux-Residual
  Residual-Control   Outer-Iter.   Inner-Iter.     Column Row Layer    Maximum-Head-Change  Column Row Layer    Maximum-Flux-Residual          L2-NORM 
          0                 1           2             5    8     1       0.8901554990E-01       5    8    1         0.4833771893E+01      0.7208815573E+01
          0                 2           2             4    7     1      -0.5785243168E-01       5    7    1        -0.3141734687E+01      0.7091480771E+01
          0                 3           2             4    7     1       0.4067990535E-01       5    7    1         0.2247081488E+01      0.5256818041E+01
          0                 4           2             5    8     1       0.1081182724E-01       5    8    1         0.6334317191E+00      0.6658768160E+00
          0                 5           1             5    8     1       0.4185307571E-02       5    8    1         0.2440719353E+00      0.2440886388E+00
          0                 6           1             5    8     1       0.1620128218E-02       5    8    1         0.9448932848E-01      0.9448985837E-01
          0                 7           1             5    8     1       0.6271405320E-03       5    8    1         0.3657597725E-01      0.3657615821E-01
          0                 8           1             5    8     1       0.2427581280E-03       5    8    1         0.1415796336E-01      0.1415803308E-01
          0                 9           1             5    8     1       0.9396715877E-04       5    8    1         0.5480232016E-02      0.5480258998E-02

    ------------------------------------------------
       NWT REQUIRED            9 OUTER ITERATIONS 
       AND A TOTAL OF         13 INNER ITERATIONS.
    ------------------------------------------------

 NO OUTPUT CONTROL FOR STRESS PERIOD   43   TIME STEP   25
 
 SOLVING FOR HEAD 
                                                   Max.-Head-Change                         Max.-Flux-Residual
  Residual-Control   Outer-Iter.   Inner-Iter.     Column Row Layer    Maximum-Head-Change  Column Row Layer    Maximum-Flux-Residual          L2-NORM 
          0                 1           2             5    8     1       0.8278807519E-01       5    8    1         0.4486974840E+01      0.6974162672E+01
          0                 2           2             4    7     1      -0.5785144977E-01       5    7    1        -0.3144206926E+01      0.7111311861E+01
          0                 3           2             4    7     1       0.4067946467E-01       5    7    1         0.2247254099E+01      0.5243886789E+01
          0                 4           2             5    8     1       0.1054022101E-01       5    8    1         0.6170120607E+00      0.6502768646E+00
          0                 5           1             5    8     1       0.4084415804E-02       5    8    1         0.2379631045E+00      0.2379801592E+00
          0                 6           1             5    8     1       0.1582719687E-02       5    8    1         0.9222068444E-01      0.9222120403E-01
          0                 7           1             5    8     1       0.6132980494E-03       5    8    1         0.3573499339E-01      0.3573517030E-01
          0                 8           1             5    8     1       0.2376471515E-03       5    8    1         0.1384684052E-01      0.1384690883E-01
          0                 9           1             5    8     1       0.9208461259E-04       5    8    1         0.5365386274E-02      0.5365412750E-02

    ------------------------------------------------
       NWT REQUIRED            9 OUTER ITERATIONS 
       AND A TOTAL OF         13 INNER ITERATIONS.
    ------------------------------------------------

 NO OUTPUT CONTROL FOR STRESS PERIOD   43   TIME STEP   26
 
 SOLVING FOR HEAD 
                                                   Max.-Head-Change                         Max.-Flux-Residual
  Residual-Control   Outer-Iter.   Inner-Iter.     Column Row Layer    Maximum-Head-Change  Column Row Layer    Maximum-Flux-Residual          L2-NORM 
          0                 1           2             5    8     1       0.7736721762E-01       5    8    1         0.4181572352E+01      0.6770829402E+01
          0                 2           2             4    7     1      -0.5785062459E-01       5    7    1        -0.3145743450E+01      0.7130631410E+01
          0                 3           2             4    7     1       0.4067905732E-01       5    7    1         0.2247359799E+01      0.5232353162E+01
          0                 4           2             5    8     1       0.1027271458E-01       5    8    1         0.6014350236E+00      0.6355150475E+00
          0                 5           1             5    8     1       0.3980681615E-02       5    8    1         0.2319223719E+00      0.2319397922E+00
          0                 6           1             5    8     1       0.1542493997E-02       5    8    1         0.8987833187E-01      0.8987884091E-01
          0                 7           1             5    8     1       0.5976997044E-03       5    8    1         0.3482670624E-01      0.3482687881E-01
          0                 8           1             5    8     1       0.2315986633E-03       5    8    1         0.1349464197E-01      0.1349470874E-01
          0                 9           1             5    8     1       0.8973925876E-04       5    8    1         0.5228819478E-02      0.5228845720E-02

    ------------------------------------------------
       NWT REQUIRED            9 OUTER ITERATIONS 
       AND A TOTAL OF         13 INNER ITERATIONS.
    ------------------------------------------------

 NO OUTPUT CONTROL FOR STRESS PERIOD   43   TIME STEP   27
 
 SOLVING FOR HEAD 
                                                   Max.-Head-Change                         Max.-Flux-Residual
  Residual-Control   Outer-Iter.   Inner-Iter.     Column Row Layer    Maximum-Head-Change  Column Row Layer    Maximum-Flux-Residual          L2-NORM 
          0                 1           2             5    8     1       0.7187150441E-01       5    8    1         0.3874153467E+01      0.6639307270E+01
          0                 2           2             5    7     1      -0.5754662690E-01       5    7    1        -0.3146487950E+01      0.6686161494E+01
          0                 3           2             4    7     1       0.4044798157E-01       5    7    1         0.2247410101E+01      0.4890802696E+01
          0                 4           2             5    8     1       0.1009278159E-01       5    8    1         0.5815282755E+00      0.8108939562E+00
          0                 5           2             5    8     1       0.3959574875E-02       5    8    1         0.2275004051E+00      0.3120975610E+00
          0                 6           2             5    8     1       0.1553892652E-02       5    8    1         0.8925837986E-01      0.1236609492E+00
          0                 7           2             5    8     1       0.6099949730E-03       5    8    1         0.3502879743E-01      0.4900579687E-01
          0                 8           2             4    8     1       0.2424051271E-03       5    8    1         0.1375096171E-01      0.1942406352E-01
          0                 9           1             4    8     1       0.9697536696E-04       4    8    1         0.5489701061E-02      0.7700269008E-02

    ------------------------------------------------
       NWT REQUIRED            9 OUTER ITERATIONS 
       AND A TOTAL OF         17 INNER ITERATIONS.
    ------------------------------------------------

 NO OUTPUT CONTROL FOR STRESS PERIOD   43   TIME STEP   28
 
 SOLVING FOR HEAD 
                                                   Max.-Head-Change                         Max.-Flux-Residual
  Residual-Control   Outer-Iter.   Inner-Iter.     Column Row Layer    Maximum-Head-Change  Column Row Layer    Maximum-Flux-Residual          L2-NORM 
          0                 1           2             4    8     1       0.1428840530E+00       4    8    1         0.7688704834E+01      0.9607448475E+01
          0                 2           2             5    7     1      -0.5718810616E-01       5    7    1        -0.3125050625E+01      0.6441308376E+01
          0                 3           2             4    7     1       0.4057885247E-01       4    7    1         0.2242549235E+01      0.5089369372E+01
          0                 4           2             4    8     1       0.1402384489E-01       4    8    1         0.7969466200E+00      0.9972064974E+00
          0                 5           2             4    8     1       0.5595203042E-02       4    8    1         0.3175318439E+00      0.3883985108E+00
          0                 6           2             4    8     1       0.2231945270E-02       4    8    1         0.1266873258E+00      0.1541921300E+00
          0                 7           2             4    8     1       0.8901714705E-03       4    8    1         0.5053405759E-01      0.6121713805E-01
          0                 8           2             4    8     1       0.3549683721E-03       4    8    1         0.2015381693E-01      0.2430609298E-01
          0                 9           2             4    8     1       0.1415255185E-03       4    8    1         0.8036307951E-02      0.9651307483E-02
          0                10           1             4    8     1       0.5641726690E-04       4    8    1         0.3203946261E-02      0.3832509577E-02

    ------------------------------------------------
       NWT REQUIRED           10 OUTER ITERATIONS 
       AND A TOTAL OF         19 INNER ITERATIONS.
    ------------------------------------------------

 NO OUTPUT CONTROL FOR STRESS PERIOD   43   TIME STEP   29
 
 SOLVING FOR HEAD 
                                                   Max.-Head-Change                         Max.-Flux-Residual
  Residual-Control   Outer-Iter.   Inner-Iter.     Column Row Layer    Maximum-Head-Change  Column Row Layer    Maximum-Flux-Residual          L2-NORM 
          0                 1           2             4    8     1       0.1349502033E+00       5    7    1         0.7315561796E+01      0.1144353610E+02
          0                 2           2             4    7     1      -0.5667026736E-01       4    7    1        -0.3119783014E+01      0.5387590124E+01
          0                 3           2             4    7     1       0.4052149515E-01       4    7    1         0.2245545313E+01      0.4685424977E+01
          0                 4           2             4    8     1       0.1362690679E-01       4    8    1         0.7739579056E+00      0.1234863144E+01
          0                 5           2             4    8     1       0.5441111777E-02       4    8    1         0.3085582591E+00      0.4866746572E+00
          0                 6           2             4    8     1       0.2172510723E-02       4    8    1         0.1232043055E+00      0.1932109905E+00
          0                 7           2             4    8     1       0.8673987856E-03       4    8    1         0.4919142912E-01      0.7672212801E-01
          0                 8           2             4    8     1       0.3463037749E-03       4    8    1         0.1963970985E-01      0.3047216639E-01
          0                 9           2             4    8     1       0.1382535404E-03       4    8    1         0.7840830775E-02      0.1210517572E-01
          0                10           1             4    8     1       0.5519187194E-04       4    8    1         0.3130182123E-02      0.4809703035E-02

    ------------------------------------------------
       NWT REQUIRED           10 OUTER ITERATIONS 
       AND A TOTAL OF         19 INNER ITERATIONS.
    ------------------------------------------------

 NO OUTPUT CONTROL FOR STRESS PERIOD   43   TIME STEP   30



 STREAM LISTING     PERIOD     43   STEP       30

 LAYER ROW COL. STREAM  RCH.  FLOW INTO     FLOW TO   FLOW OUT OF   OVRLND.     DIRECT     STREAM       STREAM     STREAM     STREAM   STREAMBED  STREAMBED
                SEG.NO.  NO.  STRM. RCH.    AQUIFER    STRM. RCH.    RUNOFF     PRECIP       ET          HEAD       DEPTH      WIDTH   CONDCTNC.   GRADIENT

   1    1    1     1     1    2.1749E+01  2.2965E-01   2.1520E+01  0.000E+00  0.000E+00  0.000E+00  1.09418E+03  1.128E+00  1.236E+01  5.564E-02  1.376E+00
   1    2    2     1     2    2.1520E+01  3.5497E-01   2.1165E+01  0.000E+00  0.000E+00  0.000E+00  1.08918E+03  1.123E+00  1.230E+01  8.610E-02  1.374E+00
   1    3    3     1     3    2.1165E+01  3.0207E-01   2.0863E+01  0.000E+00  0.000E+00  0.000E+00  1.08354E+03  1.117E+00  1.223E+01  7.337E-02  1.372E+00
   1    3    4     1     4    2.0863E+01  2.7761E-01   2.0585E+01  0.000E+00  0.000E+00  0.000E+00  1.07852E+03  1.112E+00  1.216E+01  6.751E-02  1.371E+00
   1    4    5     2     1    1.8585E+01  3.1244E-01   1.8273E+01  0.000E+00  0.000E+00  0.000E+00  1.07294E+03  1.006E+00  1.200E+01  7.800E-02  1.335E+00
   1    5    6     2     2    1.8273E+01  2.3979E-01   1.8033E+01  0.000E+00  0.000E+00  0.000E+00  1.06751E+03  9.966E-01  1.200E+01  6.000E-02  1.332E+00
   1    6    6     2     3    1.8033E+01  2.3932E-01   1.7793E+01  0.000E+00  0.000E+00  0.000E+00  1.06278E+03  9.887E-01  1.200E+01  6.000E-02  1.330E+00
   1    7    6     2     4    1.7793E+01  2.3884E-01   1.7555E+01  0.000E+00  0.000E+00  0.000E+00  1.05806E+03  9.807E-01  1.200E+01  6.000E-02  1.327E+00
   1    8    6     2     5    1.7555E+01  2.3837E-01   1.7316E+01  0.000E+00  0.000E+00  0.000E+00  1.05333E+03  9.728E-01  1.200E+01  6.000E-02  1.324E+00
   1    3    5     3     1    2.0000E+00  2.8252E-01   1.7175E+00  0.000E+00  0.000E+00  0.000E+00  1.07555E+03  1.909E+00  9.636E+00  7.227E-02  1.955E+00
   1    3    6     3     2    1.7175E+00  2.4905E-01   1.4684E+00  0.000E+00  0.000E+00  0.000E+00  1.07264E+03  1.727E+00  8.909E+00  6.682E-02  1.864E+00
   1    3    7     3     3    1.4684E+00  1.9718E-01   1.2712E+00  0.000E+00  0.000E+00  0.000E+00  1.06987E+03  1.555E+00  8.218E+00  5.547E-02  1.777E+00
   1    4    8     3     4    1.2712E+00  2.2567E-01   1.0456E+00  0.000E+00  0.000E+00  0.000E+00  1.06682E+03  1.364E+00  7.455E+00  6.709E-02  1.682E+00
   1    5    8     3     5    1.0456E+00  1.5790E-01   8.8768E-01  0.000E+00  0.000E+00  0.000E+00  1.06362E+03  1.164E+00  6.655E+00  4.991E-02  1.582E+00
   1    6    8     3     6    8.8768E-01  5.5980E-02   8.3170E-01  0.000E+00  0.000E+00  0.000E+00  1.06158E+03  1.036E+00  6.145E+00  1.844E-02  1.518E+00
   1    5   10     4     1    1.0000E+01  9.0919E-02   9.9091E+00  0.000E+00  0.000E+00  0.000E+00  1.07836E+03  6.368E-01  1.000E+01  2.500E-02  1.212E+00
   1    5    9     4     2    9.9091E+00  1.8158E-01   9.7275E+00  0.000E+00  0.000E+00  0.000E+00  1.07154E+03  6.315E-01  1.000E+01  5.000E-02  1.211E+00
   1    6    8     4     3    9.7275E+00  1.2689E-01   9.6006E+00  0.000E+00  0.000E+00  0.000E+00  1.06381E+03  6.256E-01  1.000E+01  3.500E-02  1.209E+00
   1    6    8     5     1    1.0432E+01  2.2686E-01   1.0205E+01  0.000E+00  0.000E+00  0.000E+00  1.05868E+03  6.790E-01  1.542E+01  6.166E-02  1.226E+00
   1    7    7     5     2    1.0205E+01  2.7894E-01   9.9265E+00  0.000E+00  0.000E+00  0.000E+00  1.05417E+03  6.732E-01  1.519E+01  7.594E-02  1.224E+00
   1    8    7     5     3    9.9265E+00  1.9221E-01   9.7343E+00  0.000E+00  0.000E+00  0.000E+00  1.04992E+03  6.676E-01  1.497E+01  5.241E-02  1.223E+00
   1    8    6     5     4    9.7343E+00  1.3577E-01   9.5985E+00  0.000E+00  0.000E+00  0.000E+00  1.04691E+03  6.637E-01  1.482E+01  3.706E-02  1.221E+00
   1    9    6     6     1    9.5985E+00  2.2097E-01   9.3776E+00  0.000E+00  0.000E+00  0.000E+00  1.04341E+03  6.828E-01  1.200E+01  6.000E-02  1.228E+00
   1   10    7     6     2    9.3776E+00  2.2039E-01   9.1572E+00  0.000E+00  0.000E+00  0.000E+00  1.03885E+03  6.732E-01  1.200E+01  6.000E-02  1.224E+00
   1   11    7     6     3    9.1572E+00  2.1981E-01   8.9374E+00  0.000E+00  0.000E+00  0.000E+00  1.03430E+03  6.636E-01  1.200E+01  6.000E-02  1.221E+00
   1   12    7     6     4    8.9374E+00  2.1923E-01   8.7181E+00  0.000E+00  0.000E+00  0.000E+00  1.02974E+03  6.539E-01  1.200E+01  6.000E-02  1.218E+00
   1   13    7     6     5    8.7181E+00  2.3081E-03   8.7158E+00  0.000E+00  0.000E+00  0.000E+00  1.02656E+03  6.489E-01  1.200E+01  2.400E-02  3.206E-02
   1   14    9     7     1    1.5000E+02  1.4113E+00   1.4859E+02  0.000E+00  0.000E+00  0.000E+00  1.03987E+03  2.288E+00  5.529E+01  5.593E-01  8.411E-01
   1   13    8     7     2    1.4859E+02  2.0479E+00   1.4654E+02  0.000E+00  0.000E+00  0.000E+00  1.03478E+03  2.278E+00  5.525E+01  6.147E-01  1.110E+00
   1   13    7     7     3    1.4654E+02  1.8009E+00   1.4474E+02  0.000E+00  0.000E+00  0.000E+00  1.02969E+03  2.268E+00  5.521E+01  5.583E-01  1.075E+00
   1   13    6     8     1    1.5346E+02  1.1386E+00   1.5232E+02  0.000E+00  0.000E+00  0.000E+00  1.02471E+03  2.837E+00  4.114E+01  4.192E-01  9.054E-01
   1   13    5     8     2    1.5232E+02  3.8030E-01   1.5194E+02  0.000E+00  0.000E+00  0.000E+00  1.01846E+03  2.832E+00  4.106E+01  4.184E-01  3.030E-01
   1   13    4     8     3    1.5194E+02 -1.7326E+00   1.5367E+02  0.000E+00  0.000E+00  0.000E+00  1.01221E+03  2.836E+00  4.113E+01  4.191E+00 -1.378E-01
   1   13    3     8     4    1.5367E+02 -3.2851E+00   1.5695E+02  0.000E+00  0.000E+00  0.000E+00  1.00598E+03  2.854E+00  4.138E+01  4.217E+00 -2.597E-01
   1   13    2     8     5    1.5695E+02 -2.4930E+00   1.5945E+02  0.000E+00  0.000E+00  0.000E+00  9.99749E+02  2.874E+00  4.167E+01  4.246E+00 -1.957E-01
   1   13    1     8     6    1.5945E+02 -1.9731E+00   1.6142E+02  0.000E+00  0.000E+00  0.000E+00  9.94764E+02  2.889E+00  4.189E+01  2.561E+00 -2.568E-01
   1    8    6     9     1    1.7316E+01  0.0000E+00   1.7316E+01  0.000E+00  0.000E+00  0.000E+00  1.08190E+03  3.150E+00  4.000E+00  0.000E+00  2.050E+00
   1    8    5     9     2    1.7316E+01  0.0000E+00   1.7316E+01  0.000E+00  0.000E+00  0.000E+00  1.08140E+03  3.150E+00  4.000E+00  0.000E+00  2.050E+00





UNSATURATED ZONE PACKAGE VOLUMETRIC BUDGET FOR  TIME STEP    30 STRESS PERIOD   43
  ------------------------------------------------------------------------------



     CUMULATIVE VOLUMES      L**3       RATES FOR THIS TIME STEP      L**3/T
     ------------------                 ------------------------

           IN:                                      IN:
           ---                                      ---
        INFILTRATION =  6499726122.5262          INFILTRATION =          23.3175

          OUT:                                     OUT:
          ----                                     ----
              UZF ET =  1380486855.2552                UZF ET =          23.3175
        UZF RECHARGE =  4547394136.9132          UZF RECHARGE =          25.8943

            IN - OUT =   571845130.3578              IN - OUT =         -25.8943

          STORAGE:                                 STORAGE:
          --------                                 --------
      STORAGE CHANGE =   571878499.3188        STORAGE CHANGE =         -25.8948

 PERCENT DISCREPANCY IS DIFFERENCE BETWEEN IN-OUT MINUS CHANGE IN STORAGE
 DIVIDED BY THE AVERAGE OF IN AND OUT TIMES 100

 PERCENT DISCREPANCY =          -0.00     PERCENT DISCREPANCY =           0.00






1
  VOLUMETRIC BUDGET FOR AGRICULTURAL FIELDS AT  END OF TIME STEP   30, STRESS PERIOD  43
  ------------------------------------------------------------------------------

     CUMULATIVE VOLUMES      L**3       RATES FOR THIS TIME STEP      L**3/T
     ------------------                 ------------------------

           IN:                                      IN:
           ---                                      ---
               AG WELLS  =  5526087168.0000                 AG WELLS  =           5.1534
      DIVERSION SEGMENTS =   879959744.0000        DIVERSION SEGMENTS =          17.3163
           GW IRRIGATION =           0.0000             GW IRRIGATION =           0.0000
           SW IRRIGATION =           0.0000             SW IRRIGATION =           0.0000
        SYSTEM LOSSES GW =           0.0000          SYSTEM LOSSES GW =           0.0000
        SYSTEM LOSSES SW =           0.0000          SYSTEM LOSSES SW =           0.0000

                TOTAL IN =  6406046720.0000                  TOTAL IN =          22.4697

          OUT:                                     OUT:
          ----                                     ----
               AG WELLS  =           0.0000                 AG WELLS  =           0.0000
      DIVERSION SEGMENTS =           0.0000        DIVERSION SEGMENTS =           0.0000
           GW IRRIGATION =  5526087168.0000             GW IRRIGATION =           5.1534
           SW IRRIGATION =   879975104.0000             SW IRRIGATION =          17.3166
        SYSTEM LOSSES GW =           0.0000          SYSTEM LOSSES GW =           0.0000
        SYSTEM LOSSES SW =           0.0000          SYSTEM LOSSES SW =           0.0000

               TOTAL OUT =  6406062080.0000                 TOTAL OUT =          22.4700

                IN - OUT =      -15360.0000                  IN - OUT =      -3.4523E-04

     PERCENT DISCREPANCY =          -0.00         PERCENT DISCREPANCY =          -0.00



1
  VOLUMETRIC BUDGET FOR ENTIRE MODEL AT END OF TIME STEP   30, STRESS PERIOD  43
  ------------------------------------------------------------------------------

     CUMULATIVE VOLUMES      L**3       RATES FOR THIS TIME STEP      L**3/T
     ------------------                 ------------------------

           IN:                                      IN:
           ---                                      ---
             STORAGE     =  5502987776.0000               STORAGE     =           6.8388
       CONSTANT HEAD     =           0.0000         CONSTANT HEAD     =           0.0000
     HEAD DEP BOUNDS     =    31966288.0000       HEAD DEP BOUNDS     =           0.2909
      STREAM LEAKAGE     =  1341180288.0000        STREAM LEAKAGE     =          12.4962
        UZF RECHARGE     =  4547392512.0000          UZF RECHARGE     =          25.8943
               GW ET     =           0.0000                 GW ET     =           0.0000
     SURFACE LEAKAGE     =           0.0000       SURFACE LEAKAGE     =           0.0000
           AG WELLS      =           0.0000             AG WELLS      =           0.0000

                TOTAL IN = 11423526912.0000                  TOTAL IN =          45.5202

          OUT:                                     OUT:
          ----                                     ----
             STORAGE     =  4799373824.0000               STORAGE     =          30.5932
       CONSTANT HEAD     =           0.0000         CONSTANT HEAD     =           0.0000
     HEAD DEP BOUNDS     =    31766684.0000       HEAD DEP BOUNDS     =           0.2863
      STREAM LEAKAGE     =  1066167104.0000        STREAM LEAKAGE     =           9.4838
        UZF RECHARGE     =           0.0000          UZF RECHARGE     =           0.0000
               GW ET     =           0.0000                 GW ET     =           0.0000
     SURFACE LEAKAGE     =           0.0000       SURFACE LEAKAGE     =           0.0000
           AG WELLS      =  5526087168.0000             AG WELLS      =           5.1534

               TOTAL OUT = 11423394816.0000                 TOTAL OUT =          45.5167

                IN - OUT =      132096.0000                  IN - OUT =       3.5019E-03

     PERCENT DISCREPANCY =           0.00         PERCENT DISCREPANCY =           0.01






         TIME SUMMARY AT END OF TIME STEP   30 IN STRESS PERIOD   43
                    SECONDS     MINUTES      HOURS       DAYS        YEARS
                    -----------------------------------------------------------
   TIME STEP LENGTH  87667.      1461.1      24.352      1.0147     2.77799E-03
 STRESS PERIOD TIME 2.63000E+06  43833.      730.56      30.440     8.33397E-02
         TOTAL TIME 1.10545E+08 1.84242E+06  30707.      1279.5      3.5030    
1
1
                            STRESS PERIOD NO.   44, LENGTH =   2630000.    
                            -----------------------------------------------

                              NUMBER OF TIME STEPS =    30

                               MULTIPLIER FOR DELT =     1.000

                            INITIAL TIME STEP SIZE =   87666.66    

 REUSING NON-PARAMETER GHB CELLS FROM LAST STRESS PERIOD

      2 GHB CELLS

 REUSING STREAM SEGMENT DATA FROM LAST STRESS PERIOD



            AREAL INFILTRATION RATE
 READING ON UNIT   19 WITH FORMAT: (FREE)              

            1           2           3           4           5           6           7           8           9          10
 ........................................................................................................................
   1   1.0000E-10  2.0000E-10   0.000       0.000       0.000       0.000       0.000       0.000       0.000       0.000    
   2   2.0000E-10  1.0000E-10  2.0000E-10   0.000       0.000      8.0000E-10  8.0000E-10  5.0000E-10   0.000       0.000    
   3    0.000      5.0000E-10  1.0000E-10  1.0000E-10  8.0000E-10  8.0000E-10  5.0000E-10  5.0000E-10   0.000       0.000    
   4   8.0000E-10  5.0000E-10  1.0000E-10  1.0000E-10  1.0000E-10  1.0000E-10  1.0000E-10  1.0000E-10  2.0000E-10   0.000    
   5   8.0000E-10  5.0000E-10  1.0000E-10  1.0000E-10  1.0000E-10  1.0000E-10  1.0000E-10  1.0000E-10  1.0000E-10  1.0000E-10
   6   8.0000E-10  5.0000E-10  5.0000E-10  2.0000E-10  2.0000E-10  1.0000E-10  1.0000E-10  1.0000E-10  1.0000E-10  5.0000E-10
   7   8.0000E-10  5.0000E-10  5.0000E-10  2.0000E-10  2.0000E-10  1.0000E-10  1.0000E-10  2.0000E-10  2.0000E-10   0.000    
   8    0.000      5.0000E-10  5.0000E-10  2.0000E-10  2.0000E-10  1.0000E-10  1.0000E-10  2.0000E-10  5.0000E-10   0.000    
   9    0.000      5.0000E-10  5.0000E-10  2.0000E-10  2.0000E-10  1.0000E-10  1.0000E-10  2.0000E-10  5.0000E-10   0.000    
  10    0.000      5.0000E-10  5.0000E-10  2.0000E-10  2.0000E-10  1.0000E-10  1.0000E-10  2.0000E-10  5.0000E-10  8.0000E-10
  11    0.000      1.0000E-10  1.0000E-10  1.0000E-10  1.0000E-10  1.0000E-10  1.0000E-10  2.0000E-10  5.0000E-10   0.000    
  12   1.0000E-10  1.0000E-10  1.0000E-10  1.0000E-10  1.0000E-10  1.0000E-10  1.0000E-10  1.0000E-10  2.0000E-10   0.000    
  13   1.0000E-10  1.0000E-10  2.0000E-10  2.0000E-10  2.0000E-10  2.0000E-10  2.0000E-10  1.0000E-10  1.0000E-10   0.000    
  14    0.000      2.0000E-10  5.0000E-10  5.0000E-10  5.0000E-10  5.0000E-10  5.0000E-10  2.0000E-10  1.0000E-10   0.000    
  15    0.000       0.000      8.0000E-10  8.0000E-10  8.0000E-10  8.0000E-10   0.000       0.000       0.000       0.000    

                  ET RATE =  4.000000E-07

 USING ET EXTINCTION DEPTH FROM PREVIOUS STRESS PERIOD. CURRENT PERIOD IS:      44

 USING EXTINCTION WATER CONTENT FROM PREVIOUS STRESS PERIOD. CURRENT PERIOD IS:      44

 USING AIR ENTRY PRESSURE FROM PREVIOUS STRESS PERIOD. CURRENT PERIOD IS:      44

 USING ROOT PRESSURE HEAD FROM PREVIOUS STRESS PERIOD. CURRENT PERIOD IS:      44

 USING ROOT ACTIVITY FROM PREVIOUS STRESS PERIOD. CURRENT PERIOD IS:      44

 PROCESSING AG STRESS PERIOD DATA

 READING AG STRESS PERIOD DATA

 READING IRRIGATION SEGMENT

 READING IRRIGATION WELL

 READING SUPPLEMENTAL WELL

 END PROCESSING AG STRESS PERIOD DATA OPTIONS
 
 SOLVING FOR HEAD 
                                                   Max.-Head-Change                         Max.-Flux-Residual
  Residual-Control   Outer-Iter.   Inner-Iter.     Column Row Layer    Maximum-Head-Change  Column Row Layer    Maximum-Flux-Residual          L2-NORM 
          0                 1           2             5    7     1       0.1342003079E+00       5    7    1         0.7212358183E+01      0.1305233397E+02
          0                 2           2             4    7     1      -0.2683517393E+00       4    7    1        -0.1448031038E+02      0.3155833359E+02
          0                 3           2             5    8     1      -0.8844891136E-01       5    8    1        -0.4876677447E+01      0.9379707555E+01
          0                 4           2             4    8     1      -0.3157198257E-01       4    8    1        -0.1761991136E+01      0.3003632655E+01
          0                 5           2             4    8     1      -0.1192335189E-01       4    8    1        -0.6647817546E+00      0.1130975663E+01
          0                 6           2             5    7     1      -0.4415886665E-02       5    7    1        -0.2468783748E+00      0.3453504299E+00
          0                 7           2             5    6     1      -0.5521016282E-03       5    6    1        -0.3138380558E-01      0.3176430550E-01
          0                 8           1             5    6     1       0.3762290025E-04       5    6    1         0.2196867261E-02      0.2207392674E-02

    ------------------------------------------------
       NWT REQUIRED            8 OUTER ITERATIONS 
       AND A TOTAL OF         15 INNER ITERATIONS.
    ------------------------------------------------

 NO OUTPUT CONTROL FOR STRESS PERIOD   44   TIME STEP    1
 
 SOLVING FOR HEAD 
                                                   Max.-Head-Change                         Max.-Flux-Residual
  Residual-Control   Outer-Iter.   Inner-Iter.     Column Row Layer    Maximum-Head-Change  Column Row Layer    Maximum-Flux-Residual          L2-NORM 
          0                 1           2             5    6     1       0.1352008695E+00       5    6    1         0.7326172719E+01      0.1296842971E+02
          0                 2           2             4    7     1      -0.5716561008E-01       4    7    1        -0.3145717171E+01      0.5047683144E+01
          0                 3           2             4    7     1       0.1137186107E-01       4    7    1         0.6381570040E+00      0.1093060004E+01
          0                 4           2             5    8     1      -0.4189653953E-02       5    8    1        -0.2375557147E+00      0.2966707856E+00
          0                 5           2             5    8     1      -0.3302731953E-02       5    8    1        -0.1841752690E+00      0.2840344056E+00
          0                 6           2             5    8     1      -0.2599930233E-01       5    8    1        -0.1430842679E+01      0.3416920375E+01
          0                 7           2             4    8     1      -0.1022068052E-01       5    7    1        -0.5951898099E+00      0.1153804969E+01
          0                 8           2             4    8     1      -0.4247976271E-02       5    7    1        -0.2476963341E+00      0.4680306370E+00
          0                 9           2             4    8     1      -0.1763051782E-02       5    7    1        -0.1029388755E+00      0.1905391766E+00
          0                10           2             4    8     1      -0.7308317750E-03       5    7    1        -0.4271524712E-01      0.7775868863E-01
                                                   Max.-Head-Change                         Max.-Flux-Residual
  Residual-Control   Outer-Iter.   Inner-Iter.     Column Row Layer    Maximum-Head-Change  Column Row Layer    Maximum-Flux-Residual          L2-NORM 
          0                11           2             4    8     1      -0.3026313025E-03       5    7    1        -0.1770155806E-01      0.3179228654E-01
          0                12           2             4    8     1      -0.1252038217E-03       5    7    1        -0.7327328478E-02      0.1301706257E-01
          0                13           1             4    8     1      -0.5175854031E-04       5    7    1        -0.3030084230E-02      0.5335484139E-02

    ------------------------------------------------
       NWT REQUIRED           13 OUTER ITERATIONS 
       AND A TOTAL OF         25 INNER ITERATIONS.
    ------------------------------------------------

 NO OUTPUT CONTROL FOR STRESS PERIOD   44   TIME STEP    2
 
 SOLVING FOR HEAD 
                                                   Max.-Head-Change                         Max.-Flux-Residual
  Residual-Control   Outer-Iter.   Inner-Iter.     Column Row Layer    Maximum-Head-Change  Column Row Layer    Maximum-Flux-Residual          L2-NORM 
          0                 1           2             5    6     1       0.1312776894E+00       5    6    1         0.7108598094E+01      0.1309239706E+02
          0                 2           2             4    7     1      -0.1168486234E+00       4    7    1        -0.6347280669E+01      0.1187484244E+02
          0                 3           2             5    8     1      -0.1060511630E+00       5    8    1        -0.5843503390E+01      0.1233809058E+02
          0                 4           2             5    8     1      -0.3920491205E-01       5    8    1        -0.2160178607E+01      0.4278305629E+01
          0                 5           2             4    8     1      -0.1484191209E-01       4    8    1        -0.8156309817E+00      0.1608058559E+01
          0                 6           2             4    8     1      -0.5657560409E-02       4    8    1        -0.3110735158E+00      0.6076811751E+00
          0                 7           2             4    8     1      -0.2133084003E-02       4    8    1        -0.1185652646E+00      0.2031841797E+00
          0                 8           2             4    8     1      -0.7995864311E-03       4    8    1        -0.4461202616E-01      0.7595784304E-01
          0                 9           2             4    8     1      -0.2997203858E-03       5    7    1        -0.1671373191E-01      0.2851794092E-01
          0                10           2             4    8     1      -0.1123467749E-03       5    7    1        -0.6271341641E-02      0.1071510655E-01
          0                11           1             4    8     1      -0.4211124034E-04       5    7    1        -0.2353239844E-02      0.4025928072E-02

    ------------------------------------------------
       NWT REQUIRED           11 OUTER ITERATIONS 
       AND A TOTAL OF         21 INNER ITERATIONS.
    ------------------------------------------------

 NO OUTPUT CONTROL FOR STRESS PERIOD   44   TIME STEP    3
 
 SOLVING FOR HEAD 
                                                   Max.-Head-Change                         Max.-Flux-Residual
  Residual-Control   Outer-Iter.   Inner-Iter.     Column Row Layer    Maximum-Head-Change  Column Row Layer    Maximum-Flux-Residual          L2-NORM 
          0                 1           2             5    6     1       0.1329023245E+00       5    6    1         0.7199908100E+01      0.1311182858E+02
          0                 2           2             4    7     1      -0.5946535657E-01       4    7    1        -0.3266019087E+01      0.4995903440E+01
          0                 3           2             4    7     1      -0.1803798016E+01       5    8    1        -0.9757905410E+02      0.2379595461E+03
          0                 4           2             4    7     1       0.1190230344E+00       4    6    1         0.6776098222E+01      0.9911029459E+01
          0                 5           2             4    7     1      -0.4737119666E-02       4    6    1        -0.2778518878E+00      0.4190986685E+00
          0                 6           1             5    6     1      -0.6582414004E-04       5    6    1        -0.3960942435E-02      0.7202823748E-02

    ------------------------------------------------
       NWT REQUIRED            6 OUTER ITERATIONS 
       AND A TOTAL OF         11 INNER ITERATIONS.
    ------------------------------------------------

 NO OUTPUT CONTROL FOR STRESS PERIOD   44   TIME STEP    4
 
 SOLVING FOR HEAD 
                                                   Max.-Head-Change                         Max.-Flux-Residual
  Residual-Control   Outer-Iter.   Inner-Iter.     Column Row Layer    Maximum-Head-Change  Column Row Layer    Maximum-Flux-Residual          L2-NORM 
          0                 1           2             5    6     1       0.8771605658E-01       5    6    1         0.4772755597E+01      0.1019086379E+02
          0                 2           2             5    6     1      -0.9546543221E-01       5    6    1        -0.5255602340E+01      0.1262168995E+02
          0                 3           2             4    7     1       0.5879132909E-01       5    6    1         0.3253935649E+01      0.7950731822E+01
          0                 4           2             4    7     1      -0.8660791791E-01       5    6    1        -0.4911391851E+01      0.1202961176E+02
          0                 5           2             4    7     1       0.1067868134E-02       4    7    1         0.6222942951E-01      0.1524553797E+00
          0                 6           1             4    7     1       0.1570537846E-04       5    8    1         0.9169020002E-03      0.2248349350E-02

    ------------------------------------------------
       NWT REQUIRED            6 OUTER ITERATIONS 
       AND A TOTAL OF         11 INNER ITERATIONS.
    ------------------------------------------------

 NO OUTPUT CONTROL FOR STRESS PERIOD   44   TIME STEP    5
 
 SOLVING FOR HEAD 
                                                   Max.-Head-Change                         Max.-Flux-Residual
  Residual-Control   Outer-Iter.   Inner-Iter.     Column Row Layer    Maximum-Head-Change  Column Row Layer    Maximum-Flux-Residual          L2-NORM 
          0                 1           2             5    6     1       0.8724918247E-01       5    6    1         0.4745289672E+01      0.1022115048E+02
          0                 2           2             4    6     1      -0.1147218430E+00       5    6    1        -0.6301362041E+01      0.1518749787E+02
          0                 3           2             4    7     1      -0.1877871389E-01       5    8    1        -0.1009439530E+01      0.2463061002E+01
          0                 4           2             4    7     1       0.1278941342E-02       5    8    1         0.7069409456E-01      0.1724341286E+00
          0                 5           1             4    7     1      -0.5090235017E-04       5    8    1        -0.2893003649E-02      0.7055590773E-02

    ------------------------------------------------
       NWT REQUIRED            5 OUTER ITERATIONS 
       AND A TOTAL OF          9 INNER ITERATIONS.
    ------------------------------------------------

 NO OUTPUT CONTROL FOR STRESS PERIOD   44   TIME STEP    6
 
 SOLVING FOR HEAD 
                                                   Max.-Head-Change                         Max.-Flux-Residual
  Residual-Control   Outer-Iter.   Inner-Iter.     Column Row Layer    Maximum-Head-Change  Column Row Layer    Maximum-Flux-Residual          L2-NORM 
          0                 1           2             5    6     1       0.8714193538E-01       5    6    1         0.4737663454E+01      0.1028905245E+02
          0                 2           2             4    7     1      -0.1200669118E+00       5    6    1        -0.6587678266E+01      0.1589761007E+02
          0                 3           2             5    6     1       0.1775830145E-02       5    6    1         0.1008875169E+00      0.2362886831E+00
          0                 4           1             5    6     1      -0.7066184575E-04       5    6    1        -0.4126305269E-02      0.9642718090E-02

    ------------------------------------------------
       NWT REQUIRED            4 OUTER ITERATIONS 
       AND A TOTAL OF          7 INNER ITERATIONS.
    ------------------------------------------------

 NO OUTPUT CONTROL FOR STRESS PERIOD   44   TIME STEP    7
 
 SOLVING FOR HEAD 
                                                   Max.-Head-Change                         Max.-Flux-Residual
  Residual-Control   Outer-Iter.   Inner-Iter.     Column Row Layer    Maximum-Head-Change  Column Row Layer    Maximum-Flux-Residual          L2-NORM 
          0                 1           2             5    6     1       0.8666733793E-01       5    6    1         0.4709943472E+01      0.1031188546E+02
          0                 2           2             4    7     1      -0.1289020433E+00       5    6    1        -0.7057001813E+01      0.1705713846E+02
          0                 3           2             4    7     1      -0.5448602904E-02       5    8    1        -0.2933557387E+00      0.7123292061E+00
          0                 4           2             4    7     1       0.3710824534E-03       5    8    1         0.2055143439E-01      0.4976940172E-01
          0                 5           1             4    7     1      -0.1476922030E-04       5    8    1        -0.8412938964E-03      0.2035162132E-02

    ------------------------------------------------
       NWT REQUIRED            5 OUTER ITERATIONS 
       AND A TOTAL OF          9 INNER ITERATIONS.
    ------------------------------------------------

 NO OUTPUT CONTROL FOR STRESS PERIOD   44   TIME STEP    8
 
 SOLVING FOR HEAD 
                                                   Max.-Head-Change                         Max.-Flux-Residual
  Residual-Control   Outer-Iter.   Inner-Iter.     Column Row Layer    Maximum-Head-Change  Column Row Layer    Maximum-Flux-Residual          L2-NORM 
          0                 1           2             5    6     1       0.8669896032E-01       5    6    1         0.4710128396E+01      0.1038775320E+02
          0                 2           2             4    7     1      -0.1288445225E+00       5    6    1        -0.7051434613E+01      0.1705233261E+02
          0                 3           2             4    7     1      -0.5253508446E-02       5    8    1        -0.2824713325E+00      0.6865782673E+00
          0                 4           2             4    7     1       0.3577953586E-03       5    8    1         0.1978930401E-01      0.4796190494E-01
          0                 5           1             4    7     1      -0.1424038885E-04       5    8    1        -0.8101108276E-03      0.1961129135E-02

    ------------------------------------------------
       NWT REQUIRED            5 OUTER ITERATIONS 
       AND A TOTAL OF          9 INNER ITERATIONS.
    ------------------------------------------------

 NO OUTPUT CONTROL FOR STRESS PERIOD   44   TIME STEP    9
 
 SOLVING FOR HEAD 
                                                   Max.-Head-Change                         Max.-Flux-Residual
  Residual-Control   Outer-Iter.   Inner-Iter.     Column Row Layer    Maximum-Head-Change  Column Row Layer    Maximum-Flux-Residual          L2-NORM 
          0                 1           2             5    6     1       0.8674722828E-01       5    6    1         0.4711300918E+01      0.1046212258E+02
          0                 2           2             4    7     1      -0.1289167829E+00       5    6    1        -0.7052911782E+01      0.1706426778E+02
          0                 3           2             4    7     1      -0.5296843163E-02       5    8    1        -0.2844134883E+00      0.6920779456E+00
          0                 4           2             4    7     1       0.3607467106E-03       5    8    1         0.1992532851E-01      0.4834774849E-01
          0                 5           1             4    7     1      -0.1435785405E-04       5    8    1        -0.8156777108E-03      0.1976931728E-02

    ------------------------------------------------
       NWT REQUIRED            5 OUTER ITERATIONS 
       AND A TOTAL OF          9 INNER ITERATIONS.
    ------------------------------------------------

 NO OUTPUT CONTROL FOR STRESS PERIOD   44   TIME STEP   10
 
 SOLVING FOR HEAD 
                                                   Max.-Head-Change                         Max.-Flux-Residual
  Residual-Control   Outer-Iter.   Inner-Iter.     Column Row Layer    Maximum-Head-Change  Column Row Layer    Maximum-Flux-Residual          L2-NORM 
          0                 1           2             5    8     1       0.1016501598E+01       5    8    1         0.5603745932E+02      0.5691674961E+02
          0                 2           2             5    8     1       0.4606398420E+00       5    8    1         0.2562975171E+02      0.3000581742E+02
          0                 3           2             5    8     1       0.2500799252E+00       5    8    1         0.1381161895E+02      0.1382546427E+02
          0                 4           2             5    8     1       0.1435501636E+00       5    8    1         0.7922684450E+01      0.7922842025E+01
          0                 5           2             5    8     1       0.8239932700E-01       5    8    1         0.4548071515E+01      0.4548081687E+01
          0                 6           2             5    8     1       0.4729777104E-01       5    8    1         0.2610642360E+01      0.2610649059E+01
          0                 7           2             5    8     1       0.2714913463E-01       5    8    1         0.1498530976E+01      0.1498534769E+01
          0                 8           2             5    8     1       0.1558369126E-01       5    8    1         0.8601648964E+00      0.8601670725E+00
          0                 9           2             5    8     1       0.8957742821E-02       5    8    1         0.4939670712E+00      0.4939682035E+00
          0                10           1             5    8     1       0.5147546440E-02       5    8    1         0.2838555904E+00      0.2838563083E+00
                                                   Max.-Head-Change                         Max.-Flux-Residual
  Residual-Control   Outer-Iter.   Inner-Iter.     Column Row Layer    Maximum-Head-Change  Column Row Layer    Maximum-Flux-Residual          L2-NORM 
          0                11           1             5    8     1       0.2958023967E-02       5    8    1         0.1631171772E+00      0.1631175828E+00
          0                12           1             5    8     1       0.1699820055E-02       5    8    1         0.9373486984E-01      0.9373510328E-01
          0                13           1             5    8     1       0.9767965583E-03       5    8    1         0.5386448532E-01      0.5386461943E-01
          0                14           1             5    8     1       0.5613131819E-03       5    8    1         0.3095306981E-01      0.3095314680E-01
          0                15           1             5    8     1       0.3225568972E-03       5    8    1         0.1778708886E-01      0.1778713309E-01
          0                16           1             5    8     1       0.1853563239E-03       5    8    1         0.1022129644E-01      0.1022132219E-01
          0                17           1             5    8     1       0.1065144357E-03       5    8    1         0.5873636572E-02      0.5873651620E-02
          0                18           1             5    8     1       0.6120818935E-04       5    8    1         0.3375267107E-02      0.3375275516E-02

    ------------------------------------------------
       NWT REQUIRED           18 OUTER ITERATIONS 
       AND A TOTAL OF         27 INNER ITERATIONS.
    ------------------------------------------------

 NO OUTPUT CONTROL FOR STRESS PERIOD   44   TIME STEP   11
 
 SOLVING FOR HEAD 
                                                   Max.-Head-Change                         Max.-Flux-Residual
  Residual-Control   Outer-Iter.   Inner-Iter.     Column Row Layer    Maximum-Head-Change  Column Row Layer    Maximum-Flux-Residual          L2-NORM 
          0                 1           2             5    8     1       0.1832884862E+01       5    8    1         0.9881956248E+02      0.1525689747E+03
          0                 2           2             4    8     1       0.7954463483E+00       4    8    1         0.4255455729E+02      0.7157279223E+02
          0                 3           2             4    8     1       0.4549179798E+00       4    8    1         0.2456940101E+02      0.3424526790E+02
          0                 4           2             4    8     1       0.2671504741E+00       4    8    1         0.1446760069E+02      0.1961518422E+02
          0                 5           2             4    8     1       0.1566887780E+00       4    8    1         0.8491980060E+01      0.1144922267E+02
          0                 6           2             4    8     1       0.9188356038E-01       4    8    1         0.4979958333E+01      0.6702591020E+01
          0                 7           2             4    8     1       0.5389182339E-01       4    8    1         0.2920184130E+01      0.3928380872E+01
          0                 8           2             4    8     1       0.3161966093E-01       4    8    1         0.1712764816E+01      0.2304893186E+01
          0                 9           2             4    8     1       0.1853649087E-01       4    8    1         0.1004237008E+01      0.1353374333E+01
          0                10           2             4    8     1       0.1087799720E-01       4    8    1         0.5890903188E+00      0.7956610629E+00
                                                   Max.-Head-Change                         Max.-Flux-Residual
  Residual-Control   Outer-Iter.   Inner-Iter.     Column Row Layer    Maximum-Head-Change  Column Row Layer    Maximum-Flux-Residual          L2-NORM 
          0                11           2             4    8     1       0.6386586876E-02       4    8    1         0.3457127900E+00      0.4683706414E+00
          0                12           2             4    8     1       0.3751403494E-02       4    8    1         0.2029777331E+00      0.2760744577E+00
          0                13           2             4    8     1       0.2204599475E-02       4    8    1         0.1192303403E+00      0.1629509237E+00
          0                14           2             4    8     1       0.1296230330E-02       4    8    1         0.7007070753E-01      0.9631596723E-01
          0                15           2             4    8     1       0.7625295059E-03       4    8    1         0.4120056104E-01      0.5701180339E-01
          0                16           2             4    8     1       0.4488057853E-03       4    8    1         0.2423773865E-01      0.3379617488E-01
          0                17           2             4    8     1       0.2642973328E-03       4    8    1         0.1426621388E-01      0.2006386921E-01
          0                18           2             4    8     1       0.1557273027E-03       4    8    1         0.8401527311E-02      0.1192918852E-01
          0                19           1             4    8     1       0.9180776946E-04       4    8    1         0.4950462083E-02      0.7103254456E-02

    ------------------------------------------------
       NWT REQUIRED           19 OUTER ITERATIONS 
       AND A TOTAL OF         37 INNER ITERATIONS.
    ------------------------------------------------

 NO OUTPUT CONTROL FOR STRESS PERIOD   44   TIME STEP   12
 
 SOLVING FOR HEAD 
                                                   Max.-Head-Change                         Max.-Flux-Residual
  Residual-Control   Outer-Iter.   Inner-Iter.     Column Row Layer    Maximum-Head-Change  Column Row Layer    Maximum-Flux-Residual          L2-NORM 
          0                 1           2             4    7     1       0.2105762155E+01       4    7    1         0.1109360378E+03      0.2173192869E+03
          0                 2           2             4    7     1       0.1145732821E+01       4    7    1         0.6066491382E+02      0.1083653966E+03
          0                 3           2             4    7     1       0.6722608150E+00       4    7    1         0.3578994292E+02      0.5935990536E+02
          0                 4           2             4    7     1       0.3987442834E+00       4    7    1         0.2143160298E+02      0.3092977810E+02
          0                 5           2             4    7     1       0.2351173515E+00       4    7    1         0.1268364839E+02      0.1791199267E+02
          0                 6           2             4    7     1       0.1385133965E+00       4    7    1         0.7479046324E+01      0.1053508455E+02
          0                 7           2             4    7     1       0.8158102247E-01       4    7    1         0.4405444530E+01      0.6210667682E+01
          0                 8           2             4    7     1       0.4805687100E-01       4    7    1         0.2594663019E+01      0.3664373508E+01
          0                 9           2             4    7     1       0.2831730435E-01       4    7    1         0.1528484377E+01      0.2163527843E+01
          0                10           2             4    7     1       0.1669156984E-01       4    7    1         0.9006949018E+00      0.1278246393E+01
                                                   Max.-Head-Change                         Max.-Flux-Residual
  Residual-Control   Outer-Iter.   Inner-Iter.     Column Row Layer    Maximum-Head-Change  Column Row Layer    Maximum-Flux-Residual          L2-NORM 
          0                11           2             4    7     1       0.9842260999E-02       4    7    1         0.5309395750E+00      0.7556846221E+00
          0                12           2             4    7     1       0.5805546264E-02       4    7    1         0.3130870217E+00      0.4470147762E+00
          0                13           2             4    7     1       0.3425610582E-02       4    7    1         0.1846864876E+00      0.2645690548E+00
          0                14           2             4    7     1       0.2021971828E-02       4    7    1         0.1089811135E+00      0.1566654039E+00
          0                15           2             4    7     1       0.1193849972E-02       4    7    1         0.6432930854E-01      0.9281239586E-01
          0                16           2             4    7     1       0.7051106580E-03       4    7    1         0.3798423423E-01      0.5500734891E-01
          0                17           2             4    7     1       0.4165748678E-03       4    7    1         0.2243520553E-01      0.3261380438E-01
          0                18           2             4    7     1       0.2461798964E-03       4    7    1         0.1325513988E-01      0.1934343192E-01
          0                19           2             4    7     1       0.1455229230E-03       4    7    1         0.7833604689E-02      0.1147633792E-01
          0                20           1             4    7     1       0.8604491376E-04       4    7    1         0.4630817330E-02      0.6810803158E-02

    ------------------------------------------------
       NWT REQUIRED           20 OUTER ITERATIONS 
       AND A TOTAL OF         39 INNER ITERATIONS.
    ------------------------------------------------

 NO OUTPUT CONTROL FOR STRESS PERIOD   44   TIME STEP   13
 
 SOLVING FOR HEAD 
                                                   Max.-Head-Change                         Max.-Flux-Residual
  Residual-Control   Outer-Iter.   Inner-Iter.     Column Row Layer    Maximum-Head-Change  Column Row Layer    Maximum-Flux-Residual          L2-NORM 
          0                 1           2             4    6     1       0.2045973449E+01       4    6    1         0.1101605674E+03      0.1360775803E+03
          0                 2           2             4    6     1       0.1074077757E+01       4    6    1         0.5849875898E+02      0.6043853089E+02
          0                 3           2             4    6     1       0.6110032590E+00       4    6    1         0.3333962384E+02      0.3338954223E+02
          0                 4           2             4    6     1       0.3554559436E+00       4    6    1         0.1939678643E+02      0.1940322005E+02
          0                 5           2             4    6     1       0.2067833391E+00       4    6    1         0.1128418854E+02      0.1128636451E+02
          0                 6           2             4    6     1       0.1202933062E+00       4    6    1         0.6564494902E+01      0.6565760485E+01
          0                 7           2             4    6     1       0.6997876529E-01       4    6    1         0.3818820284E+01      0.3819600082E+01
          0                 8           2             4    6     1       0.4070901031E-01       4    6    1         0.2221547569E+01      0.2222017634E+01
          0                 9           2             4    6     1       0.2368178265E-01       4    6    1         0.1292352367E+01      0.1292630756E+01
          0                10           2             4    6     1       0.1377646815E-01       4    6    1         0.7518054105E+00      0.7519687349E+00
                                                   Max.-Head-Change                         Max.-Flux-Residual
  Residual-Control   Outer-Iter.   Inner-Iter.     Column Row Layer    Maximum-Head-Change  Column Row Layer    Maximum-Flux-Residual          L2-NORM 
          0                11           2             4    6     1       0.8014217600E-02       4    6    1         0.4373502146E+00      0.4374455960E+00
          0                12           2             4    6     1       0.4662127845E-02       4    6    1         0.2544209181E+00      0.2544765016E+00
          0                13           2             4    6     1       0.2712108743E-02       4    6    1         0.1480048687E+00      0.1480372280E+00
          0                14           2             4    6     1       0.1577720014E-02       4    6    1         0.8609917765E-01      0.8611800797E-01
          0                15           2             4    6     1       0.9178098566E-03       4    6    1         0.5008663881E-01      0.5009759421E-01
          0                16           2             4    6     1       0.5339191106E-03       4    6    1         0.2913699104E-01      0.2914336426E-01
          0                17           2             4    6     1       0.3105976707E-03       4    6    1         0.1694991280E-01      0.1695362039E-01
          0                18           2             4    6     1       0.1806845044E-03       4    6    1         0.9860301804E-02      0.9862458652E-02
          0                19           1             4    6     1       0.1051098980E-03       4    6    1         0.5736050035E-02      0.5737304622E-02
          0                20           1             4    6     1       0.6114575550E-04       4    6    1         0.3336842004E-02      0.3337571880E-02

    ------------------------------------------------
       NWT REQUIRED           20 OUTER ITERATIONS 
       AND A TOTAL OF         38 INNER ITERATIONS.
    ------------------------------------------------

 NO OUTPUT CONTROL FOR STRESS PERIOD   44   TIME STEP   14
 
 SOLVING FOR HEAD 
                                                   Max.-Head-Change                         Max.-Flux-Residual
  Residual-Control   Outer-Iter.   Inner-Iter.     Column Row Layer    Maximum-Head-Change  Column Row Layer    Maximum-Flux-Residual          L2-NORM 
          0                 1           2             5    6     1      -0.1084189779E+00       5    6    1        -0.6112243483E+01      0.1181087566E+02
          0                 2           2             5    8     1      -0.1196943508E+00       5    8    1        -0.6408369741E+01      0.1548854049E+02
          0                 3           2             4    6     1      -0.4128558221E-01       4    6    1        -0.2301070598E+01      0.2528957039E+01
          0                 4           2             4    6     1      -0.9766226551E-02       4    6    1        -0.5493113633E+00      0.5545471042E+00
          0                 5           2             4    6     1      -0.2310146559E-02       4    6    1        -0.1295922599E+00      0.1296444433E+00
          0                 6           2             4    6     1      -0.5464347309E-03       4    6    1        -0.3066545016E-01      0.3066561273E-01
          0                 7           2             4    6     1      -0.1292479797E-03       4    6    1        -0.7253000640E-02      0.7253053260E-02
          0                 8           1             4    6     1      -0.3057004604E-04       4    6    1        -0.1715485251E-02      0.1715496784E-02

    ------------------------------------------------
       NWT REQUIRED            8 OUTER ITERATIONS 
       AND A TOTAL OF         15 INNER ITERATIONS.
    ------------------------------------------------

 NO OUTPUT CONTROL FOR STRESS PERIOD   44   TIME STEP   15
 
 SOLVING FOR HEAD 
                                                   Max.-Head-Change                         Max.-Flux-Residual
  Residual-Control   Outer-Iter.   Inner-Iter.     Column Row Layer    Maximum-Head-Change  Column Row Layer    Maximum-Flux-Residual          L2-NORM 
          0                 1           2             5    6     1      -0.1033320742E+00       5    6    1        -0.5736036945E+01      0.1132275611E+02
          0                 2           2             4    7     1      -0.1238537311E+00       4    7    1        -0.6662479205E+01      0.1567434522E+02
          0                 3           2             4    7     1      -0.5631890252E-02       4    7    1        -0.3104165877E+00      0.4381384142E+00
          0                 4           2             4    7     1       0.3835641768E-03       4    7    1         0.2155577890E-01      0.3728567677E-01
          0                 5           1             5    6     1      -0.2035707539E-04       5    6    1        -0.1164361117E-02      0.2299275578E-02

    ------------------------------------------------
       NWT REQUIRED            5 OUTER ITERATIONS 
       AND A TOTAL OF          9 INNER ITERATIONS.
    ------------------------------------------------

 NO OUTPUT CONTROL FOR STRESS PERIOD   44   TIME STEP   16
 
 SOLVING FOR HEAD 
                                                   Max.-Head-Change                         Max.-Flux-Residual
  Residual-Control   Outer-Iter.   Inner-Iter.     Column Row Layer    Maximum-Head-Change  Column Row Layer    Maximum-Flux-Residual          L2-NORM 
          0                 1           2             5    6     1      -0.9279156435E-01       5    6    1        -0.5144612841E+01      0.1034888748E+02
          0                 2           2             4    7     1      -0.1235731315E+00       4    7    1        -0.6650498528E+01      0.1559183691E+02
          0                 3           2             4    7     1      -0.5651529198E-02       4    7    1        -0.3111404832E+00      0.4428237076E+00
          0                 4           2             4    7     1       0.3849016726E-03       4    7    1         0.2159544169E-01      0.3785951865E-01
          0                 5           1             5    6     1      -0.1971962457E-04       5    6    1        -0.1123706046E-02      0.2345163155E-02

    ------------------------------------------------
       NWT REQUIRED            5 OUTER ITERATIONS 
       AND A TOTAL OF          9 INNER ITERATIONS.
    ------------------------------------------------

 NO OUTPUT CONTROL FOR STRESS PERIOD   44   TIME STEP   17
 
 SOLVING FOR HEAD 
                                                   Max.-Head-Change                         Max.-Flux-Residual
  Residual-Control   Outer-Iter.   Inner-Iter.     Column Row Layer    Maximum-Head-Change  Column Row Layer    Maximum-Flux-Residual          L2-NORM 
          0                 1           2             5    6     1      -0.8285690742E-01       5    6    1        -0.4592319071E+01      0.9337039608E+01
          0                 2           2             4    7     1      -0.1234099609E+00       4    7    1        -0.6640218318E+01      0.1564899991E+02
          0                 3           2             4    7     1      -0.5662938875E-02       4    7    1        -0.3118908279E+00      0.4378160097E+00
          0                 4           2             4    7     1       0.3856787285E-03       4    7    1         0.2165160675E-01      0.3728880883E-01
          0                 5           1             5    6     1      -0.1906229083E-04       5    6    1        -0.1085721174E-02      0.2298985688E-02

    ------------------------------------------------
       NWT REQUIRED            5 OUTER ITERATIONS 
       AND A TOTAL OF          9 INNER ITERATIONS.
    ------------------------------------------------

 NO OUTPUT CONTROL FOR STRESS PERIOD   44   TIME STEP   18
 
 SOLVING FOR HEAD 
                                                   Max.-Head-Change                         Max.-Flux-Residual
  Residual-Control   Outer-Iter.   Inner-Iter.     Column Row Layer    Maximum-Head-Change  Column Row Layer    Maximum-Flux-Residual          L2-NORM 
          0                 1           2             5    6     1      -0.7356628946E-01       5    6    1        -0.4076202321E+01      0.8390288719E+01
          0                 2           2             4    7     1      -0.1232739119E+00       4    7    1        -0.6631504886E+01      0.1570416369E+02
          0                 3           2             4    7     1      -0.5672458165E-02       4    7    1        -0.3125302324E+00      0.4331405083E+00
          0                 4           2             4    7     1       0.3863270395E-03       4    7    1         0.2169986059E-01      0.3675027414E-01
          0                 5           1             5    6     1      -0.1844756017E-04       5    6    1        -0.1050217002E-02      0.2255404925E-02

    ------------------------------------------------
       NWT REQUIRED            5 OUTER ITERATIONS 
       AND A TOTAL OF          9 INNER ITERATIONS.
    ------------------------------------------------

 NO OUTPUT CONTROL FOR STRESS PERIOD   44   TIME STEP   19
 
 SOLVING FOR HEAD 
                                                   Max.-Head-Change                         Max.-Flux-Residual
  Residual-Control   Outer-Iter.   Inner-Iter.     Column Row Layer    Maximum-Head-Change  Column Row Layer    Maximum-Flux-Residual          L2-NORM 
          0                 1           2             5    6     1      -0.6487157055E-01       5    6    1        -0.3593535785E+01      0.7505212764E+01
          0                 2           2             4    7     1      -0.1231628629E+00       4    7    1        -0.6624237455E+01      0.1575735159E+02
          0                 3           2             4    7     1      -0.5680234915E-02       4    7    1        -0.3130671971E+00      0.4287680060E+00
          0                 4           2             4    7     1       0.3868566749E-03       4    7    1         0.2174080364E-01      0.3624295050E-01
          0                 5           1             5    6     1      -0.1787224981E-04       5    6    1        -0.1017007033E-02      0.2214201317E-02

    ------------------------------------------------
       NWT REQUIRED            5 OUTER ITERATIONS 
       AND A TOTAL OF          9 INNER ITERATIONS.
    ------------------------------------------------

 NO OUTPUT CONTROL FOR STRESS PERIOD   44   TIME STEP   20
 
 SOLVING FOR HEAD 
                                                   Max.-Head-Change                         Max.-Flux-Residual
  Residual-Control   Outer-Iter.   Inner-Iter.     Column Row Layer    Maximum-Head-Change  Column Row Layer    Maximum-Flux-Residual          L2-NORM 
          0                 1           2             5    6     1      -0.5672893580E-01       5    6    1        -0.3141840311E+01      0.6679071469E+01
          0                 2           2             4    7     1      -0.1230747911E+00       4    7    1        -0.6618300559E+01      0.1580861460E+02
          0                 3           2             4    7     1      -0.5686422067E-02       4    7    1        -0.3135098577E+00      0.4250934285E+00
          0                 4           2             4    7     1       0.3872780500E-03       4    7    1         0.2177499129E-01      0.3581302333E-01
          0                 5           1             5    6     1      -0.1733350832E-04       5    6    1        -0.9859215288E-03      0.2179074225E-02

    ------------------------------------------------
       NWT REQUIRED            5 OUTER ITERATIONS 
       AND A TOTAL OF          9 INNER ITERATIONS.
    ------------------------------------------------

 NO OUTPUT CONTROL FOR STRESS PERIOD   44   TIME STEP   21
 
 SOLVING FOR HEAD 
                                                   Max.-Head-Change                         Max.-Flux-Residual
  Residual-Control   Outer-Iter.   Inner-Iter.     Column Row Layer    Maximum-Head-Change  Column Row Layer    Maximum-Flux-Residual          L2-NORM 
          0                 1           2             5    6     1      -0.4909795269E-01       5    6    1        -0.2718828367E+01      0.5910127599E+01
          0                 2           2             4    7     1      -0.1230078975E+00       4    7    1        -0.6613588823E+01      0.1585794606E+02
          0                 3           2             4    7     1      -0.5691114349E-02       4    7    1        -0.3138657174E+00      0.5114334639E+00
          0                 4           2             4    7     1       0.3875976234E-03       4    7    1         0.2180301383E-01      0.3993875161E-01
          0                 5           1             5    6     1      -0.1682852684E-04       5    6    1        -0.9568040646E-03      0.2181861598E-02

    ------------------------------------------------
       NWT REQUIRED            5 OUTER ITERATIONS 
       AND A TOTAL OF          9 INNER ITERATIONS.
    ------------------------------------------------

 NO OUTPUT CONTROL FOR STRESS PERIOD   44   TIME STEP   22
 
 SOLVING FOR HEAD 
                                                   Max.-Head-Change                         Max.-Flux-Residual
  Residual-Control   Outer-Iter.   Inner-Iter.     Column Row Layer    Maximum-Head-Change  Column Row Layer    Maximum-Flux-Residual          L2-NORM 
          0                 1           2             5    6     1      -0.4194128396E-01       5    6    1        -0.2322387963E+01      0.5197674619E+01
          0                 2           2             4    7     1      -0.1229603348E+00       4    7    1        -0.6610002528E+01      0.1590521829E+02
          0                 3           2             4    7     1      -0.5694465763E-02       4    7    1        -0.3141416354E+00      0.5080543972E+00
          0                 4           2             4    7     1       0.3878258703E-03       4    7    1         0.2182529739E-01      0.3956622989E-01
          0                 5           1             5    6     1      -0.1635496930E-04       5    6    1        -0.9295099303E-03      0.2151042802E-02

    ------------------------------------------------
       NWT REQUIRED            5 OUTER ITERATIONS 
       AND A TOTAL OF          9 INNER ITERATIONS.
    ------------------------------------------------

 NO OUTPUT CONTROL FOR STRESS PERIOD   44   TIME STEP   23
 
 SOLVING FOR HEAD 
                                                   Max.-Head-Change                         Max.-Flux-Residual
  Residual-Control   Outer-Iter.   Inner-Iter.     Column Row Layer    Maximum-Head-Change  Column Row Layer    Maximum-Flux-Residual          L2-NORM 
          0                 1           2             5    6     1      -0.3522517940E-01       5    6    1        -0.1950614368E+01      0.4540809943E+01
          0                 2           2             5    7     1      -0.1230491103E+00       5    8    1        -0.6628819111E+01      0.1595077308E+02
          0                 3           2             4    7     1      -0.5696579864E-02       4    7    1        -0.3143442904E+00      0.5048635063E+00
          0                 4           2             4    7     1       0.3879698495E-03       4    7    1         0.2184233504E-01      0.3921393375E-01
          0                 5           1             5    6     1      -0.1591056033E-04       5    6    1        -0.9039087827E-03      0.2121871696E-02

    ------------------------------------------------
       NWT REQUIRED            5 OUTER ITERATIONS 
       AND A TOTAL OF          9 INNER ITERATIONS.
    ------------------------------------------------

 NO OUTPUT CONTROL FOR STRESS PERIOD   44   TIME STEP   24
 
 SOLVING FOR HEAD 
                                                   Max.-Head-Change                         Max.-Flux-Residual
  Residual-Control   Outer-Iter.   Inner-Iter.     Column Row Layer    Maximum-Head-Change  Column Row Layer    Maximum-Flux-Residual          L2-NORM 
          0                 1           2             4    5     1       0.2984506687E-01       4    5    1         0.1630365535E+01      0.3941559319E+01
          0                 2           2             5    7     1      -0.1233759281E+00       5    8    1        -0.6646942207E+01      0.1599467269E+02
          0                 3           2             4    7     1      -0.5697560482E-02       4    7    1        -0.3144797048E+00      0.5018447361E+00
          0                 4           2             4    7     1       0.3880366329E-03       4    7    1         0.2185455377E-01      0.3887964521E-01
          0                 5           1             4    6     1      -0.1560919218E-04       5    6    1        -0.8798775029E-03      0.2094193212E-02

    ------------------------------------------------
       NWT REQUIRED            5 OUTER ITERATIONS 
       AND A TOTAL OF          9 INNER ITERATIONS.
    ------------------------------------------------

 NO OUTPUT CONTROL FOR STRESS PERIOD   44   TIME STEP   25
 
 SOLVING FOR HEAD 
                                                   Max.-Head-Change                         Max.-Flux-Residual
  Residual-Control   Outer-Iter.   Inner-Iter.     Column Row Layer    Maximum-Head-Change  Column Row Layer    Maximum-Flux-Residual          L2-NORM 
          0                 1           2             4    5     1       0.2649722352E-01       4    5    1         0.1447190820E+01      0.3404503085E+01
          0                 2           2             5    7     1      -0.1236917508E+00       5    8    1        -0.6664961519E+01      0.1603698322E+02
          0                 3           2             4    7     1      -0.5699692995E-02       4    7    1        -0.3145533105E+00      0.5028288884E+00
          0                 4           2             4    7     1       0.3881818688E-03       4    7    1         0.2185864876E-01      0.3901734102E-01
          0                 5           1             5    6     1      -0.1595420051E-04       5    6    1        -0.9049288246E-03      0.2108485924E-02

    ------------------------------------------------
       NWT REQUIRED            5 OUTER ITERATIONS 
       AND A TOTAL OF          9 INNER ITERATIONS.
    ------------------------------------------------

 NO OUTPUT CONTROL FOR STRESS PERIOD   44   TIME STEP   26
 
 SOLVING FOR HEAD 
                                                   Max.-Head-Change                         Max.-Flux-Residual
  Residual-Control   Outer-Iter.   Inner-Iter.     Column Row Layer    Maximum-Head-Change  Column Row Layer    Maximum-Flux-Residual          L2-NORM 
          0                 1           2             4    5     1       0.2332418545E-01       4    5    1         0.1273406976E+01      0.2944468987E+01
          0                 2           2             5    7     1      -0.1241804512E+00       5    8    1        -0.6680585006E+01      0.1607717155E+02
          0                 3           2             4    7     1      -0.5696677361E-02       4    7    1        -0.3145767502E+00      0.4968945484E+00
          0                 4           2             4    7     1       0.3879764927E-03       4    7    1         0.2186639107E-01      0.3831974761E-01
          0                 5           1             4    7     1      -0.1544161491E-04       4    7    1        -0.8793313634E-03      0.2047456530E-02

    ------------------------------------------------
       NWT REQUIRED            5 OUTER ITERATIONS 
       AND A TOTAL OF          9 INNER ITERATIONS.
    ------------------------------------------------

 NO OUTPUT CONTROL FOR STRESS PERIOD   44   TIME STEP   27
 
 SOLVING FOR HEAD 
                                                   Max.-Head-Change                         Max.-Flux-Residual
  Residual-Control   Outer-Iter.   Inner-Iter.     Column Row Layer    Maximum-Head-Change  Column Row Layer    Maximum-Flux-Residual          L2-NORM 
          0                 1           2             5    8     1       0.2075220162E-01       5    8    1         0.1143624136E+01      0.2570333082E+01
          0                 2           2             5    7     1      -0.1244536027E+00       5    8    1        -0.6695903333E+01      0.1611527016E+02
          0                 3           2             4    7     1      -0.5705759184E-02       4    7    1        -0.3151300230E+00      0.4952655623E+00
          0                 4           2             4    7     1       0.3885950136E-03       4    7    1         0.2190674733E-01      0.3810967328E-01
          0                 5           1             4    7     1      -0.1546623287E-04       4    7    1        -0.8811351365E-03      0.2028008452E-02

    ------------------------------------------------
       NWT REQUIRED            5 OUTER ITERATIONS 
       AND A TOTAL OF          9 INNER ITERATIONS.
    ------------------------------------------------

 NO OUTPUT CONTROL FOR STRESS PERIOD   44   TIME STEP   28
 
 SOLVING FOR HEAD 
                                                   Max.-Head-Change                         Max.-Flux-Residual
  Residual-Control   Outer-Iter.   Inner-Iter.     Column Row Layer    Maximum-Head-Change  Column Row Layer    Maximum-Flux-Residual          L2-NORM 
          0                 1           2             5    8     1       0.2343090186E-01       5    8    1         0.1289694798E+01      0.2229079738E+01
          0                 2           2             5    7     1      -0.1247393424E+00       5    8    1        -0.6711791717E+01      0.1614492590E+02
          0                 3           2             4    7     1      -0.1751986711E-01       4    7    1        -0.9467721407E+00      0.2081436273E+01
          0                 4           2             4    6     1       0.1380679142E-02       4    6    1         0.7533308134E-01      0.1726390254E+00
          0                 5           1             4    6     1      -0.9401925644E-04       4    6    1        -0.5301729457E-02      0.1023754062E-01

    ------------------------------------------------
       NWT REQUIRED            5 OUTER ITERATIONS 
       AND A TOTAL OF          9 INNER ITERATIONS.
    ------------------------------------------------

 NO OUTPUT CONTROL FOR STRESS PERIOD   44   TIME STEP   29
 
 SOLVING FOR HEAD 
                                                   Max.-Head-Change                         Max.-Flux-Residual
  Residual-Control   Outer-Iter.   Inner-Iter.     Column Row Layer    Maximum-Head-Change  Column Row Layer    Maximum-Flux-Residual          L2-NORM 
          0                 1           2             5    8     1       0.2632018765E-01       5    8    1         0.1447137816E+01      0.2050306629E+01
          0                 2           2             4    6     1      -0.1492820056E+00       5    8    1        -0.8100320764E+01      0.1954432264E+02
          0                 3           2             4    6     1       0.3250251626E-01       5    6    1         0.1776732180E+01      0.3969806207E+01
          0                 4           2             4    6     1      -0.2213320526E-02       5    6    1        -0.1251197892E+00      0.2164636105E+00
          0                 5           1             4    6     1       0.8806998707E-04       5    6    1         0.5147071485E-02      0.7428013257E-02

    ------------------------------------------------
       NWT REQUIRED            5 OUTER ITERATIONS 
       AND A TOTAL OF          9 INNER ITERATIONS.
    ------------------------------------------------

 NO OUTPUT CONTROL FOR STRESS PERIOD   44   TIME STEP   30



 STREAM LISTING     PERIOD     44   STEP       30

 LAYER ROW COL. STREAM  RCH.  FLOW INTO     FLOW TO   FLOW OUT OF   OVRLND.     DIRECT     STREAM       STREAM     STREAM     STREAM   STREAMBED  STREAMBED
                SEG.NO.  NO.  STRM. RCH.    AQUIFER    STRM. RCH.    RUNOFF     PRECIP       ET          HEAD       DEPTH      WIDTH   CONDCTNC.   GRADIENT

   1    1    1     1     1    1.3875E+01  1.7894E-01   1.3696E+01  0.000E+00  0.000E+00  0.000E+00  1.09404E+03  9.876E-01  9.972E+00  4.487E-02  1.329E+00
   1    2    2     1     2    1.3696E+01  2.7573E-01   1.3420E+01  0.000E+00  0.000E+00  0.000E+00  1.08904E+03  9.829E-01  9.890E+00  6.923E-02  1.328E+00
   1    3    3     1     3    1.3420E+01  2.3380E-01   1.3186E+01  0.000E+00  0.000E+00  0.000E+00  1.08340E+03  9.775E-01  9.797E+00  5.878E-02  1.326E+00
   1    3    4     1     4    1.3186E+01  2.1419E-01   1.2972E+01  0.000E+00  0.000E+00  0.000E+00  1.07838E+03  9.727E-01  9.714E+00  5.391E-02  1.324E+00
   1    4    5     2     1    1.0972E+01  2.9101E-01   1.0681E+01  0.000E+00  0.000E+00  0.000E+00  1.07266E+03  7.309E-01  1.200E+01  7.800E-02  1.244E+00
   1    5    6     2     2    1.0681E+01  2.2322E-01   1.0458E+01  0.000E+00  0.000E+00  0.000E+00  1.06723E+03  7.204E-01  1.200E+01  6.000E-02  1.240E+00
   1    6    6     2     3    1.0458E+01  2.2267E-01   1.0235E+01  0.000E+00  0.000E+00  0.000E+00  1.06250E+03  7.112E-01  1.200E+01  6.000E-02  1.237E+00
   1    7    6     2     4    1.0235E+01  2.2212E-01   1.0013E+01  0.000E+00  0.000E+00  0.000E+00  1.05778E+03  7.020E-01  1.200E+01  6.000E-02  1.234E+00
   1    8    6     2     5    1.0013E+01  2.2157E-01   9.7913E+00  0.000E+00  0.000E+00  0.000E+00  1.05305E+03  6.928E-01  1.200E+01  6.000E-02  1.231E+00
   1    3    5     3     1    2.0000E+00  2.8252E-01   1.7175E+00  0.000E+00  0.000E+00  0.000E+00  1.07555E+03  1.909E+00  9.636E+00  7.227E-02  1.955E+00
   1    3    6     3     2    1.7175E+00  2.4905E-01   1.4684E+00  0.000E+00  0.000E+00  0.000E+00  1.07264E+03  1.727E+00  8.909E+00  6.682E-02  1.864E+00
   1    3    7     3     3    1.4684E+00  1.9718E-01   1.2712E+00  0.000E+00  0.000E+00  0.000E+00  1.06987E+03  1.555E+00  8.218E+00  5.547E-02  1.777E+00
   1    4    8     3     4    1.2712E+00  2.2567E-01   1.0456E+00  0.000E+00  0.000E+00  0.000E+00  1.06682E+03  1.364E+00  7.455E+00  6.709E-02  1.682E+00
   1    5    8     3     5    1.0456E+00  1.5790E-01   8.8768E-01  0.000E+00  0.000E+00  0.000E+00  1.06362E+03  1.164E+00  6.655E+00  4.991E-02  1.582E+00
   1    6    8     3     6    8.8768E-01  5.5980E-02   8.3170E-01  0.000E+00  0.000E+00  0.000E+00  1.06158E+03  1.036E+00  6.145E+00  1.844E-02  1.518E+00
   1    5   10     4     1    1.0000E+01  9.0919E-02   9.9091E+00  0.000E+00  0.000E+00  0.000E+00  1.07836E+03  6.368E-01  1.000E+01  2.500E-02  1.212E+00
   1    5    9     4     2    9.9091E+00  1.8158E-01   9.7275E+00  0.000E+00  0.000E+00  0.000E+00  1.07154E+03  6.315E-01  1.000E+01  5.000E-02  1.211E+00
   1    6    8     4     3    9.7275E+00  1.2689E-01   9.6006E+00  0.000E+00  0.000E+00  0.000E+00  1.06381E+03  6.256E-01  1.000E+01  3.500E-02  1.209E+00
   1    6    8     5     1    1.0432E+01  2.2686E-01   1.0205E+01  0.000E+00  0.000E+00  0.000E+00  1.05868E+03  6.790E-01  1.542E+01  6.166E-02  1.226E+00
   1    7    7     5     2    1.0205E+01  2.7894E-01   9.9265E+00  0.000E+00  0.000E+00  0.000E+00  1.05417E+03  6.732E-01  1.519E+01  7.594E-02  1.224E+00
   1    8    7     5     3    9.9265E+00  1.9221E-01   9.7343E+00  0.000E+00  0.000E+00  0.000E+00  1.04992E+03  6.676E-01  1.497E+01  5.241E-02  1.223E+00
   1    8    6     5     4    9.7343E+00  1.3577E-01   9.5985E+00  0.000E+00  0.000E+00  0.000E+00  1.04691E+03  6.637E-01  1.482E+01  3.706E-02  1.221E+00
   1    9    6     6     1    9.5985E+00  2.2097E-01   9.3776E+00  0.000E+00  0.000E+00  0.000E+00  1.04341E+03  6.828E-01  1.200E+01  6.000E-02  1.228E+00
   1   10    7     6     2    9.3776E+00  2.2039E-01   9.1572E+00  0.000E+00  0.000E+00  0.000E+00  1.03885E+03  6.732E-01  1.200E+01  6.000E-02  1.224E+00
   1   11    7     6     3    9.1572E+00  2.1981E-01   8.9374E+00  0.000E+00  0.000E+00  0.000E+00  1.03430E+03  6.636E-01  1.200E+01  6.000E-02  1.221E+00
   1   12    7     6     4    8.9374E+00  2.1923E-01   8.7181E+00  0.000E+00  0.000E+00  0.000E+00  1.02974E+03  6.539E-01  1.200E+01  6.000E-02  1.218E+00
   1   13    7     6     5    8.7181E+00  2.2859E-03   8.7158E+00  0.000E+00  0.000E+00  0.000E+00  1.02656E+03  6.489E-01  1.200E+01  2.400E-02  3.175E-02
   1   14    9     7     1    1.5000E+02  1.4120E+00   1.4859E+02  0.000E+00  0.000E+00  0.000E+00  1.03987E+03  2.288E+00  5.529E+01  5.593E-01  8.415E-01
   1   13    8     7     2    1.4859E+02  2.0480E+00   1.4654E+02  0.000E+00  0.000E+00  0.000E+00  1.03478E+03  2.278E+00  5.525E+01  6.147E-01  1.111E+00
   1   13    7     7     3    1.4654E+02  1.8004E+00   1.4474E+02  0.000E+00  0.000E+00  0.000E+00  1.02969E+03  2.268E+00  5.521E+01  5.583E-01  1.075E+00
   1   13    6     8     1    1.5346E+02  1.1397E+00   1.5232E+02  0.000E+00  0.000E+00  0.000E+00  1.02471E+03  2.837E+00  4.114E+01  4.192E-01  9.062E-01
   1   13    5     8     2    1.5232E+02  3.8248E-01   1.5193E+02  0.000E+00  0.000E+00  0.000E+00  1.01846E+03  2.832E+00  4.106E+01  4.184E-01  3.047E-01
   1   13    4     8     3    1.5193E+02 -1.7210E+00   1.5365E+02  0.000E+00  0.000E+00  0.000E+00  1.01221E+03  2.836E+00  4.113E+01  4.191E+00 -1.369E-01
   1   13    3     8     4    1.5365E+02 -3.2764E+00   1.5693E+02  0.000E+00  0.000E+00  0.000E+00  1.00598E+03  2.854E+00  4.138E+01  4.217E+00 -2.590E-01
   1   13    2     8     5    1.5693E+02 -2.4803E+00   1.5941E+02  0.000E+00  0.000E+00  0.000E+00  9.99748E+02  2.873E+00  4.166E+01  4.246E+00 -1.947E-01
   1   13    1     8     6    1.5941E+02 -1.9563E+00   1.6137E+02  0.000E+00  0.000E+00  0.000E+00  9.94763E+02  2.888E+00  4.188E+01  2.561E+00 -2.546E-01
   1    8    6     9     1    9.7913E+00  0.0000E+00   9.7913E+00  0.000E+00  0.000E+00  0.000E+00  1.08099E+03  2.238E+00  4.000E+00  0.000E+00  1.746E+00
   1    8    5     9     2    9.7913E+00  0.0000E+00   9.7913E+00  0.000E+00  0.000E+00  0.000E+00  1.08049E+03  2.238E+00  4.000E+00  0.000E+00  1.746E+00





UNSATURATED ZONE PACKAGE VOLUMETRIC BUDGET FOR  TIME STEP    30 STRESS PERIOD   44
  ------------------------------------------------------------------------------



     CUMULATIVE VOLUMES      L**3       RATES FOR THIS TIME STEP      L**3/T
     ------------------                 ------------------------

           IN:                                      IN:
           ---                                      ---
        INFILTRATION =  6710640109.9026          INFILTRATION =          52.4977

          OUT:                                     OUT:
          ----                                     ----
              UZF ET =  1540437396.8816                UZF ET =          60.8175
        UZF RECHARGE =  4751351125.2101          UZF RECHARGE =       0.0000E+00

            IN - OUT =   418851587.8109              IN - OUT =          -8.3198

          STORAGE:                                 STORAGE:
          --------                                 --------
      STORAGE CHANGE =   418884777.0621        STORAGE CHANGE =          -8.3198

 PERCENT DISCREPANCY IS DIFFERENCE BETWEEN IN-OUT MINUS CHANGE IN STORAGE
 DIVIDED BY THE AVERAGE OF IN AND OUT TIMES 100

 PERCENT DISCREPANCY =          -0.00     PERCENT DISCREPANCY =           0.00






1
  VOLUMETRIC BUDGET FOR AGRICULTURAL FIELDS AT  END OF TIME STEP   30, STRESS PERIOD  44
  ------------------------------------------------------------------------------

     CUMULATIVE VOLUMES      L**3       RATES FOR THIS TIME STEP      L**3/T
     ------------------                 ------------------------

           IN:                                      IN:
           ---                                      ---
               AG WELLS  =  5693440000.0000                 AG WELLS  =          41.8587
      DIVERSION SEGMENTS =   921293952.0000        DIVERSION SEGMENTS =           9.7913
           GW IRRIGATION =           0.0000             GW IRRIGATION =           0.0000
           SW IRRIGATION =           0.0000             SW IRRIGATION =           0.0000
        SYSTEM LOSSES GW =           0.0000          SYSTEM LOSSES GW =           0.0000
        SYSTEM LOSSES SW =           0.0000          SYSTEM LOSSES SW =           0.0000

                TOTAL IN =  6614733824.0000                  TOTAL IN =          51.6500

          OUT:                                     OUT:
          ----                                     ----
               AG WELLS  =           0.0000                 AG WELLS  =           0.0000
      DIVERSION SEGMENTS =           0.0000        DIVERSION SEGMENTS =           0.0000
           GW IRRIGATION =  5693440000.0000             GW IRRIGATION =          41.8587
           SW IRRIGATION =   921310720.0000             SW IRRIGATION =           9.7915
        SYSTEM LOSSES GW =           0.0000          SYSTEM LOSSES GW =           0.0000
        SYSTEM LOSSES SW =           0.0000          SYSTEM LOSSES SW =           0.0000

               TOTAL OUT =  6614750720.0000                 TOTAL OUT =          51.6502

                IN - OUT =      -16896.0000                  IN - OUT =      -1.9836E-04

     PERCENT DISCREPANCY =          -0.00         PERCENT DISCREPANCY =          -0.00



1
  VOLUMETRIC BUDGET FOR ENTIRE MODEL AT END OF TIME STEP   30, STRESS PERIOD  44
  ------------------------------------------------------------------------------

     CUMULATIVE VOLUMES      L**3       RATES FOR THIS TIME STEP      L**3/T
     ------------------                 ------------------------

           IN:                                      IN:
           ---                                      ---
             STORAGE     =  5670901760.0000               STORAGE     =          41.9505
       CONSTANT HEAD     =           0.0000         CONSTANT HEAD     =           0.0000
     HEAD DEP BOUNDS     =    32731412.0000       HEAD DEP BOUNDS     =           0.2909
      STREAM LEAKAGE     =  1373876608.0000        STREAM LEAKAGE     =          12.1500
        UZF RECHARGE     =  4751349760.0000          UZF RECHARGE     =           0.0000
               GW ET     =           0.0000                 GW ET     =           0.0000
     SURFACE LEAKAGE     =           0.0000       SURFACE LEAKAGE     =           0.0000
           AG WELLS      =           0.0000             AG WELLS      =           0.0000

                TOTAL IN = 11828859904.0000                  TOTAL IN =          54.3914

          OUT:                                     OUT:
          ----                                     ----
             STORAGE     =  5011743232.0000               STORAGE     =           2.8127
       CONSTANT HEAD     =           0.0000         CONSTANT HEAD     =           0.0000
     HEAD DEP BOUNDS     =    32519224.0000       HEAD DEP BOUNDS     =           0.2860
      STREAM LEAKAGE     =  1091026560.0000        STREAM LEAKAGE     =           9.4341
        UZF RECHARGE     =           0.0000          UZF RECHARGE     =           0.0000
               GW ET     =           0.0000                 GW ET     =           0.0000
     SURFACE LEAKAGE     =           0.0000       SURFACE LEAKAGE     =           0.0000
           AG WELLS      =  5693440000.0000             AG WELLS      =          41.8587

               TOTAL OUT = 11828728832.0000                 TOTAL OUT =          54.3915

                IN - OUT =      131072.0000                  IN - OUT =      -7.2479E-05

     PERCENT DISCREPANCY =           0.00         PERCENT DISCREPANCY =          -0.00






         TIME SUMMARY AT END OF TIME STEP   30 IN STRESS PERIOD   44
                    SECONDS     MINUTES      HOURS       DAYS        YEARS
                    -----------------------------------------------------------
   TIME STEP LENGTH  87667.      1461.1      24.352      1.0147     2.77799E-03
 STRESS PERIOD TIME 2.63000E+06  43833.      730.56      30.440     8.33397E-02
         TOTAL TIME 1.13175E+08 1.88626E+06  31438.      1309.9      3.5863    
1
1
                            STRESS PERIOD NO.   45, LENGTH =   2630000.    
                            -----------------------------------------------

                              NUMBER OF TIME STEPS =    30

                               MULTIPLIER FOR DELT =     1.000

                            INITIAL TIME STEP SIZE =   87666.66    

 REUSING NON-PARAMETER GHB CELLS FROM LAST STRESS PERIOD

      2 GHB CELLS

 REUSING STREAM SEGMENT DATA FROM LAST STRESS PERIOD



            AREAL INFILTRATION RATE
 READING ON UNIT   19 WITH FORMAT: (FREE)              

            1           2           3           4           5           6           7           8           9          10
 ........................................................................................................................
   1   1.0000E-10  2.0000E-10   0.000       0.000       0.000       0.000       0.000       0.000       0.000       0.000    
   2   2.0000E-10  1.0000E-10  2.0000E-10   0.000       0.000      8.0000E-10  8.0000E-10  5.0000E-10   0.000       0.000    
   3    0.000      5.0000E-10  1.0000E-10  1.0000E-10  8.0000E-10  8.0000E-10  5.0000E-10  5.0000E-10   0.000       0.000    
   4   8.0000E-10  5.0000E-10  1.0000E-10  1.0000E-10  1.0000E-10  1.0000E-10  1.0000E-10  1.0000E-10  2.0000E-10   0.000    
   5   8.0000E-10  5.0000E-10  1.0000E-10  1.0000E-10  1.0000E-10  1.0000E-10  1.0000E-10  1.0000E-10  1.0000E-10  1.0000E-10
   6   8.0000E-10  5.0000E-10  5.0000E-10  2.0000E-10  2.0000E-10  1.0000E-10  1.0000E-10  1.0000E-10  1.0000E-10  5.0000E-10
   7   8.0000E-10  5.0000E-10  5.0000E-10  2.0000E-10  2.0000E-10  1.0000E-10  1.0000E-10  2.0000E-10  2.0000E-10   0.000    
   8    0.000      5.0000E-10  5.0000E-10  2.0000E-10  2.0000E-10  1.0000E-10  1.0000E-10  2.0000E-10  5.0000E-10   0.000    
   9    0.000      5.0000E-10  5.0000E-10  2.0000E-10  2.0000E-10  1.0000E-10  1.0000E-10  2.0000E-10  5.0000E-10   0.000    
  10    0.000      5.0000E-10  5.0000E-10  2.0000E-10  2.0000E-10  1.0000E-10  1.0000E-10  2.0000E-10  5.0000E-10  8.0000E-10
  11    0.000      1.0000E-10  1.0000E-10  1.0000E-10  1.0000E-10  1.0000E-10  1.0000E-10  2.0000E-10  5.0000E-10   0.000    
  12   1.0000E-10  1.0000E-10  1.0000E-10  1.0000E-10  1.0000E-10  1.0000E-10  1.0000E-10  1.0000E-10  2.0000E-10   0.000    
  13   1.0000E-10  1.0000E-10  2.0000E-10  2.0000E-10  2.0000E-10  2.0000E-10  2.0000E-10  1.0000E-10  1.0000E-10   0.000    
  14    0.000      2.0000E-10  5.0000E-10  5.0000E-10  5.0000E-10  5.0000E-10  5.0000E-10  2.0000E-10  1.0000E-10   0.000    
  15    0.000       0.000      8.0000E-10  8.0000E-10  8.0000E-10  8.0000E-10   0.000       0.000       0.000       0.000    

                  ET RATE =  3.250000E-07

 USING ET EXTINCTION DEPTH FROM PREVIOUS STRESS PERIOD. CURRENT PERIOD IS:      45

 USING EXTINCTION WATER CONTENT FROM PREVIOUS STRESS PERIOD. CURRENT PERIOD IS:      45

 USING AIR ENTRY PRESSURE FROM PREVIOUS STRESS PERIOD. CURRENT PERIOD IS:      45

 USING ROOT PRESSURE HEAD FROM PREVIOUS STRESS PERIOD. CURRENT PERIOD IS:      45

 USING ROOT ACTIVITY FROM PREVIOUS STRESS PERIOD. CURRENT PERIOD IS:      45

 PROCESSING AG STRESS PERIOD DATA

 READING AG STRESS PERIOD DATA

 READING IRRIGATION SEGMENT

 READING IRRIGATION WELL

 READING SUPPLEMENTAL WELL

 END PROCESSING AG STRESS PERIOD DATA OPTIONS
 
 SOLVING FOR HEAD 
                                                   Max.-Head-Change                         Max.-Flux-Residual
  Residual-Control   Outer-Iter.   Inner-Iter.     Column Row Layer    Maximum-Head-Change  Column Row Layer    Maximum-Flux-Residual          L2-NORM 
          0                 1           2             5    8     1       0.2854918984E-01       5    8    1         0.1568227269E+01      0.1952481890E+01
          0                 2           2             4    6     1      -0.2435056878E+00       5    8    1        -0.1308649168E+02      0.3175517343E+02
          0                 3           2             4    6     1       0.2368966268E-01       4    6    1         0.1301043177E+01      0.2406072359E+01
          0                 4           2             4    6     1      -0.1617131003E-02       4    6    1        -0.9216874483E-01      0.1236567369E+00
          0                 5           1             4    6     1       0.6434705542E-04       4    6    1         0.3802275684E-02      0.3934902559E-02

    ------------------------------------------------
       NWT REQUIRED            5 OUTER ITERATIONS 
       AND A TOTAL OF          9 INNER ITERATIONS.
    ------------------------------------------------

 NO OUTPUT CONTROL FOR STRESS PERIOD   45   TIME STEP    1
 
 SOLVING FOR HEAD 
                                                   Max.-Head-Change                         Max.-Flux-Residual
  Residual-Control   Outer-Iter.   Inner-Iter.     Column Row Layer    Maximum-Head-Change  Column Row Layer    Maximum-Flux-Residual          L2-NORM 
          0                 1           2             5    8     1       0.3375419644E-01       5    8    1         0.1855146649E+01      0.2201302823E+01
          0                 2           2             5    8     1      -0.3292095752E-01       5    8    1        -0.1815365711E+01      0.4164634514E+01
          0                 3           2             4    6     1       0.2730179804E-01       4    6    1         0.1487178494E+01      0.3552453700E+01
          0                 4           2             4    6     1      -0.3161668475E-02       4    6    1        -0.1782679629E+00      0.3441699156E+00
          0                 5           2             4    7     1      -0.5895004646E-02       5    6    1        -0.3345802500E+00      0.8170722356E+00
          0                 6           2             4    6     1      -0.4274340491E-01       5    6    1        -0.2400570917E+01      0.5876053929E+01
          0                 7           2             4    6     1       0.1701300700E-02       4    6    1         0.9993413211E-01      0.1204499687E+00
          0                 8           1             4    6     1      -0.2100999684E-04       4    6    1        -0.1293725892E-02      0.1650366170E-02

    ------------------------------------------------
       NWT REQUIRED            8 OUTER ITERATIONS 
       AND A TOTAL OF         15 INNER ITERATIONS.
    ------------------------------------------------

 NO OUTPUT CONTROL FOR STRESS PERIOD   45   TIME STEP    2
 
 SOLVING FOR HEAD 
                                                   Max.-Head-Change                         Max.-Flux-Residual
  Residual-Control   Outer-Iter.   Inner-Iter.     Column Row Layer    Maximum-Head-Change  Column Row Layer    Maximum-Flux-Residual          L2-NORM 
          0                 1           2             5    8     1       0.3362948941E-01       5    8    1         0.1846596772E+01      0.2215374004E+01
          0                 2           2             5    8     1      -0.9015748332E-01       5    8    1        -0.4963379342E+01      0.1186963431E+02
          0                 3           2             4    6     1      -0.9963044668E-03       4    6    1        -0.5434550503E-01      0.1253217278E+00
          0                 4           2             4    7     1      -0.1430051010E-02       5    8    1        -0.7777567089E-01      0.1884321293E+00
          0                 5           2             4    7     1      -0.1412343489E-02       4    6    1        -0.7581233841E-01      0.1856439834E+00
          0                 6           2             4    7     1      -0.6466453879E-03       5    8    1        -0.3471143057E-01      0.8501226673E-01
          0                 7           1             4    7     1       0.4405930915E-04       5    7    1         0.2431191746E-02      0.5954711802E-02

    ------------------------------------------------
       NWT REQUIRED            7 OUTER ITERATIONS 
       AND A TOTAL OF         13 INNER ITERATIONS.
    ------------------------------------------------

 NO OUTPUT CONTROL FOR STRESS PERIOD   45   TIME STEP    3
 
 SOLVING FOR HEAD 
                                                   Max.-Head-Change                         Max.-Flux-Residual
  Residual-Control   Outer-Iter.   Inner-Iter.     Column Row Layer    Maximum-Head-Change  Column Row Layer    Maximum-Flux-Residual          L2-NORM 
          0                 1           2             5    8     1       0.3474867597E-01       5    8    1         0.1906782745E+01      0.2336271017E+01
          0                 2           2             5    8     1      -0.9694756509E-01       5    8    1        -0.5342046300E+01      0.1280100819E+02
          0                 3           2             4    7     1      -0.2118128381E-01       4    6    1        -0.1138749231E+01      0.2779619160E+01
          0                 4           2             4    7     1       0.1442570188E-02       4    6    1         0.7972373000E-01      0.1945829433E+00
          0                 5           1             4    7     1      -0.5741484263E-04       4    6    1        -0.3261479054E-02      0.7960049899E-02

    ------------------------------------------------
       NWT REQUIRED            5 OUTER ITERATIONS 
       AND A TOTAL OF          9 INNER ITERATIONS.
    ------------------------------------------------

 NO OUTPUT CONTROL FOR STRESS PERIOD   45   TIME STEP    4
 
 SOLVING FOR HEAD 
                                                   Max.-Head-Change                         Max.-Flux-Residual
  Residual-Control   Outer-Iter.   Inner-Iter.     Column Row Layer    Maximum-Head-Change  Column Row Layer    Maximum-Flux-Residual          L2-NORM 
          0                 1           2             5    8     1       0.3651917685E-01       5    8    1         0.2002947602E+01      0.2539472230E+01
          0                 2           2             5    8     1      -0.9710134397E-01       5    8    1        -0.5350650431E+01      0.1282483587E+02
          0                 3           2             4    7     1      -0.1760312697E-01       4    6    1        -0.9460143398E+00      0.2308053263E+01
          0                 4           2             4    7     1       0.1198876996E-02       4    6    1         0.6623039670E-01      0.1615655323E+00
          0                 5           1             4    7     1      -0.4771575909E-04       4    6    1        -0.2709469876E-02      0.6609253754E-02

    ------------------------------------------------
       NWT REQUIRED            5 OUTER ITERATIONS 
       AND A TOTAL OF          9 INNER ITERATIONS.
    ------------------------------------------------

 NO OUTPUT CONTROL FOR STRESS PERIOD   45   TIME STEP    5
 
 SOLVING FOR HEAD 
                                                   Max.-Head-Change                         Max.-Flux-Residual
  Residual-Control   Outer-Iter.   Inner-Iter.     Column Row Layer    Maximum-Head-Change  Column Row Layer    Maximum-Flux-Residual          L2-NORM 
          0                 1           2             5    8     1       0.3811050886E-01       5    8    1         0.2089240352E+01      0.2753069172E+01
          0                 2           2             5    8     1      -0.9809987239E-01       5    8    1        -0.5405734562E+01      0.1296312958E+02
          0                 3           2             4    7     1      -0.1780633259E-01       4    6    1        -0.9563096140E+00      0.2333707296E+01
          0                 4           2             4    7     1       0.1212716589E-02       4    6    1         0.6695028519E-01      0.1633616616E+00
          0                 5           1             4    7     1      -0.4826657978E-04       4    6    1        -0.2738834814E-02      0.6682823286E-02

    ------------------------------------------------
       NWT REQUIRED            5 OUTER ITERATIONS 
       AND A TOTAL OF          9 INNER ITERATIONS.
    ------------------------------------------------

 NO OUTPUT CONTROL FOR STRESS PERIOD   45   TIME STEP    6
 
 SOLVING FOR HEAD 
                                                   Max.-Head-Change                         Max.-Flux-Residual
  Residual-Control   Outer-Iter.   Inner-Iter.     Column Row Layer    Maximum-Head-Change  Column Row Layer    Maximum-Flux-Residual          L2-NORM 
          0                 1           2             5    8     1       0.3966900373E-01       5    8    1         0.2173739638E+01      0.2980514812E+01
          0                 2           2             5    8     1      -0.9878804628E-01       5    8    1        -0.5443728301E+01      0.1305952476E+02
          0                 3           2             4    7     1      -0.1684485482E-01       4    7    1        -0.9041738930E+00      0.2206333990E+01
          0                 4           2             4    7     1       0.1147234342E-02       4    7    1         0.6330113551E-01      0.1544446935E+00
          0                 5           1             4    7     1      -0.4566036119E-04       4    7    1        -0.2589634561E-02      0.6318152841E-02

    ------------------------------------------------
       NWT REQUIRED            5 OUTER ITERATIONS 
       AND A TOTAL OF          9 INNER ITERATIONS.
    ------------------------------------------------

 NO OUTPUT CONTROL FOR STRESS PERIOD   45   TIME STEP    7
 
 SOLVING FOR HEAD 
                                                   Max.-Head-Change                         Max.-Flux-Residual
  Residual-Control   Outer-Iter.   Inner-Iter.     Column Row Layer    Maximum-Head-Change  Column Row Layer    Maximum-Flux-Residual          L2-NORM 
          0                 1           2             5    8     1       0.4115310838E-01       5    8    1         0.2254151480E+01      0.3211785747E+01
          0                 2           2             5    8     1      -0.9952851747E-01       5    8    1        -0.5484591062E+01      0.1316309332E+02
          0                 3           2             4    7     1      -0.1624178535E-01       4    7    1        -0.8718268665E+00      0.2126195508E+01
          0                 4           2             4    7     1       0.1106161788E-02       4    7    1         0.6103567217E-01      0.1488324160E+00
          0                 5           1             4    7     1      -0.4402565784E-04       4    7    1        -0.2496872164E-02      0.6088598665E-02

    ------------------------------------------------
       NWT REQUIRED            5 OUTER ITERATIONS 
       AND A TOTAL OF          9 INNER ITERATIONS.
    ------------------------------------------------

 NO OUTPUT CONTROL FOR STRESS PERIOD   45   TIME STEP    8
 
 SOLVING FOR HEAD 
                                                   Max.-Head-Change                         Max.-Flux-Residual
  Residual-Control   Outer-Iter.   Inner-Iter.     Column Row Layer    Maximum-Head-Change  Column Row Layer    Maximum-Flux-Residual          L2-NORM 
          0                 1           2             5    8     1       0.4257897559E-01       5    8    1         0.2331367669E+01      0.3444201195E+01
          0                 2           2             5    8     1      -0.1002275670E+00       5    8    1        -0.5523165384E+01      0.1326113064E+02
          0                 3           2             4    7     1      -0.1559143897E-01       4    7    1        -0.8369350062E+00      0.2039912520E+01
          0                 4           2             4    7     1       0.1061869394E-02       4    7    1         0.5859287273E-01      0.1427923117E+00
          0                 5           1             4    7     1      -0.4226280384E-04       4    7    1        -0.2396935275E-02      0.5841650948E-02

    ------------------------------------------------
       NWT REQUIRED            5 OUTER ITERATIONS 
       AND A TOTAL OF          9 INNER ITERATIONS.
    ------------------------------------------------

 NO OUTPUT CONTROL FOR STRESS PERIOD   45   TIME STEP    9
 
 SOLVING FOR HEAD 
                                                   Max.-Head-Change                         Max.-Flux-Residual
  Residual-Control   Outer-Iter.   Inner-Iter.     Column Row Layer    Maximum-Head-Change  Column Row Layer    Maximum-Flux-Residual          L2-NORM 
          0                 1           2             5    8     1       0.4394725690E-01       5    8    1         0.2405424301E+01      0.3674885812E+01
          0                 2           2             5    8     1      -0.1009094397E+00       5    8    1        -0.5560786210E+01      0.1335690146E+02
          0                 3           2             4    7     1      -0.1498784342E-01       4    7    1        -0.8045508169E+00      0.1959855793E+01
          0                 4           2             4    7     1       0.1020761001E-02       4    7    1         0.5632563336E-01      0.1371881201E+00
          0                 5           1             4    7     1      -0.4062667336E-04       4    7    1        -0.2304180336E-02      0.5612540779E-02

    ------------------------------------------------
       NWT REQUIRED            5 OUTER ITERATIONS 
       AND A TOTAL OF          9 INNER ITERATIONS.
    ------------------------------------------------

 NO OUTPUT CONTROL FOR STRESS PERIOD   45   TIME STEP   10
 
 SOLVING FOR HEAD 
                                                   Max.-Head-Change                         Max.-Flux-Residual
  Residual-Control   Outer-Iter.   Inner-Iter.     Column Row Layer    Maximum-Head-Change  Column Row Layer    Maximum-Flux-Residual          L2-NORM 
          0                 1           2             5    8     1       0.4526200961E-01       5    8    1         0.2476545429E+01      0.3902236082E+01
          0                 2           2             5    8     1      -0.1015664669E+00       5    8    1        -0.5597032010E+01      0.1344935477E+02
          0                 3           2             4    7     1      -0.1439150843E-01       4    7    1        -0.7725549438E+00      0.1880828780E+01
          0                 4           2             4    7     1       0.9801470933E-03       4    7    1         0.5408558070E-01      0.1316560451E+00
          0                 5           1             4    7     1      -0.3901022458E-04       4    7    1        -0.2212537725E-02      0.5386391560E-02

    ------------------------------------------------
       NWT REQUIRED            5 OUTER ITERATIONS 
       AND A TOTAL OF          9 INNER ITERATIONS.
    ------------------------------------------------

 NO OUTPUT CONTROL FOR STRESS PERIOD   45   TIME STEP   11
 
 SOLVING FOR HEAD 
                                                   Max.-Head-Change                         Max.-Flux-Residual
  Residual-Control   Outer-Iter.   Inner-Iter.     Column Row Layer    Maximum-Head-Change  Column Row Layer    Maximum-Flux-Residual          L2-NORM 
          0                 1           2             5    8     1       0.4652540316E-01       5    8    1         0.2544850992E+01      0.4125101920E+01
          0                 2           2             5    8     1      -0.1022037444E+00       5    8    1        -0.5632183716E+01      0.1353917246E+02
          0                 3           2             4    7     1      -0.1381743348E-01       4    7    1        -0.7417525342E+00      0.1804798061E+01
          0                 4           2             4    7     1       0.9410492210E-03       4    7    1         0.5192908211E-01      0.1263337596E+00
          0                 5           1             4    7     1      -0.3745411439E-04       4    7    1        -0.2124313296E-02      0.5168828906E-02

    ------------------------------------------------
       NWT REQUIRED            5 OUTER ITERATIONS 
       AND A TOTAL OF          9 INNER ITERATIONS.
    ------------------------------------------------

 NO OUTPUT CONTROL FOR STRESS PERIOD   45   TIME STEP   12
 
 SOLVING FOR HEAD 
                                                   Max.-Head-Change                         Max.-Flux-Residual
  Residual-Control   Outer-Iter.   Inner-Iter.     Column Row Layer    Maximum-Head-Change  Column Row Layer    Maximum-Flux-Residual          L2-NORM 
          0                 1           2             5    8     1       0.4774025299E-01       5    8    1         0.2610496058E+01      0.4342798408E+01
          0                 2           2             5    8     1      -0.1028208703E+00       5    8    1        -0.5666219643E+01      0.1362629010E+02
          0                 3           2             4    7     1      -0.1325776643E-01       4    7    1        -0.7117222695E+00      0.1730726268E+01
          0                 4           2             4    7     1       0.9029326096E-03       4    7    1         0.4982664165E-01      0.1211486677E+00
          0                 5           1             4    7     1      -0.3593705884E-04       4    7    1        -0.2038300426E-02      0.4956885542E-02

    ------------------------------------------------
       NWT REQUIRED            5 OUTER ITERATIONS 
       AND A TOTAL OF          9 INNER ITERATIONS.
    ------------------------------------------------

 NO OUTPUT CONTROL FOR STRESS PERIOD   45   TIME STEP   13
 
 SOLVING FOR HEAD 
                                                   Max.-Head-Change                         Max.-Flux-Residual
  Residual-Control   Outer-Iter.   Inner-Iter.     Column Row Layer    Maximum-Head-Change  Column Row Layer    Maximum-Flux-Residual          L2-NORM 
          0                 1           2             5    8     1       0.4890936080E-01       5    8    1         0.2673635353E+01      0.4554907933E+01
          0                 2           2             5    8     1      -0.1034196848E+00       5    8    1        -0.5699241572E+01      0.1371094270E+02
          0                 3           2             4    7     1      -0.1271439788E-01       4    7    1        -0.6825657160E+00      0.1658857272E+01
          0                 4           2             4    7     1       0.8659260185E-03       4    7    1         0.4778536983E-01      0.1161183130E+00
          0                 5           1             4    7     1      -0.3446418230E-04       4    7    1        -0.1954789977E-02      0.4751294352E-02

    ------------------------------------------------
       NWT REQUIRED            5 OUTER ITERATIONS 
       AND A TOTAL OF          9 INNER ITERATIONS.
    ------------------------------------------------

 NO OUTPUT CONTROL FOR STRESS PERIOD   45   TIME STEP   14
 
 SOLVING FOR HEAD 
                                                   Max.-Head-Change                         Max.-Flux-Residual
  Residual-Control   Outer-Iter.   Inner-Iter.     Column Row Layer    Maximum-Head-Change  Column Row Layer    Maximum-Flux-Residual          L2-NORM 
          0                 1           2             5    8     1       0.5003461523E-01       5    8    1         0.2734373373E+01      0.4761195690E+01
          0                 2           2             5    8     1      -0.1040008479E+00       5    8    1        -0.5731286179E+01      0.1379321677E+02
          0                 3           2             4    7     1      -0.1218541139E-01       4    7    1        -0.6541801077E+00      0.1588934881E+01
          0                 4           2             4    7     1       0.8298989278E-03       4    7    1         0.4579807212E-01      0.1112237496E+00
          0                 5           1             4    7     1      -0.3303029041E-04       4    7    1        -0.1873487658E-02      0.4551245373E-02

    ------------------------------------------------
       NWT REQUIRED            5 OUTER ITERATIONS 
       AND A TOTAL OF          9 INNER ITERATIONS.
    ------------------------------------------------

 NO OUTPUT CONTROL FOR STRESS PERIOD   45   TIME STEP   15
 
 SOLVING FOR HEAD 
                                                   Max.-Head-Change                         Max.-Flux-Residual
  Residual-Control   Outer-Iter.   Inner-Iter.     Column Row Layer    Maximum-Head-Change  Column Row Layer    Maximum-Flux-Residual          L2-NORM 
          0                 1           2             5    8     1       0.5111846955E-01       5    8    1         0.2792844741E+01      0.4961584502E+01
          0                 2           2             5    8     1      -0.1045654382E+00       5    8    1        -0.5762413182E+01      0.1387325000E+02
          0                 3           2             4    7     1      -0.1167040877E-01       4    7    1        -0.6265441560E+00      0.1520902727E+01
          0                 4           2             4    7     1       0.7948242187E-03       4    7    1         0.4386325817E-01      0.1064615218E+00
          0                 5           1             4    7     1      -0.3163430324E-04       4    7    1        -0.1794332476E-02      0.4356617015E-02

    ------------------------------------------------
       NWT REQUIRED            5 OUTER ITERATIONS 
       AND A TOTAL OF          9 INNER ITERATIONS.
    ------------------------------------------------

 NO OUTPUT CONTROL FOR STRESS PERIOD   45   TIME STEP   16
 
 SOLVING FOR HEAD 
                                                   Max.-Head-Change                         Max.-Flux-Residual
  Residual-Control   Outer-Iter.   Inner-Iter.     Column Row Layer    Maximum-Head-Change  Column Row Layer    Maximum-Flux-Residual          L2-NORM 
          0                 1           2             5    8     1       0.5216310108E-01       5    8    1         0.2849169710E+01      0.5156073585E+01
          0                 2           2             5    8     1      -0.1051143258E+00       5    8    1        -0.5792670844E+01      0.1395115194E+02
          0                 3           2             4    7     1      -0.1116837438E-01       4    7    1        -0.5996034328E+00      0.1454623512E+01
          0                 4           2             4    7     1       0.7606327199E-03       4    7    1         0.4197711754E-01      0.1018233263E+00
          0                 5           1             4    7     1      -0.3027346878E-04       4    7    1        -0.1717168588E-02      0.4166958966E-02

    ------------------------------------------------
       NWT REQUIRED            5 OUTER ITERATIONS 
       AND A TOTAL OF          9 INNER ITERATIONS.
    ------------------------------------------------

 NO OUTPUT CONTROL FOR STRESS PERIOD   45   TIME STEP   17
 
 SOLVING FOR HEAD 
                                                   Max.-Head-Change                         Max.-Flux-Residual
  Residual-Control   Outer-Iter.   Inner-Iter.     Column Row Layer    Maximum-Head-Change  Column Row Layer    Maximum-Flux-Residual          L2-NORM 
          0                 1           2             5    8     1       0.5317026357E-01       5    8    1         0.2903445025E+01      0.5344713782E+01
          0                 2           2             5    8     1      -0.1056482961E+00       5    8    1        -0.5822102698E+01      0.1402702493E+02
          0                 3           2             4    7     1      -0.1067905743E-01       4    7    1        -0.5733449487E+00      0.1390061345E+01
          0                 4           2             4    7     1       0.7273073527E-03       4    7    1         0.4014091507E-01      0.9730632947E-01
          0                 5           1             4    7     1      -0.2894710660E-04       4    7    1        -0.1642197565E-02      0.3982210251E-02

    ------------------------------------------------
       NWT REQUIRED            5 OUTER ITERATIONS 
       AND A TOTAL OF          9 INNER ITERATIONS.
    ------------------------------------------------

 NO OUTPUT CONTROL FOR STRESS PERIOD   45   TIME STEP   18
 
 SOLVING FOR HEAD 
                                                   Max.-Head-Change                         Max.-Flux-Residual
  Residual-Control   Outer-Iter.   Inner-Iter.     Column Row Layer    Maximum-Head-Change  Column Row Layer    Maximum-Flux-Residual          L2-NORM 
          0                 1           2             5    8     1       0.5414190678E-01       5    8    1         0.2955777959E+01      0.5527633195E+01
          0                 2           2             5    8     1      -0.1061680842E+00       5    8    1        -0.5850749511E+01      0.1410096349E+02
          0                 3           2             4    7     1      -0.1020132139E-01       4    7    1        -0.5477074566E+00      0.1327063068E+01
          0                 4           2             4    7     1       0.6947707101E-03       4    7    1         0.3834604508E-01      0.9289575230E-01
          0                 5           1             4    7     1      -0.2765213541E-04       4    7    1        -0.1568770135E-02      0.3801897307E-02

    ------------------------------------------------
       NWT REQUIRED            5 OUTER ITERATIONS 
       AND A TOTAL OF          9 INNER ITERATIONS.
    ------------------------------------------------

 NO OUTPUT CONTROL FOR STRESS PERIOD   45   TIME STEP   19
 
 SOLVING FOR HEAD 
                                                   Max.-Head-Change                         Max.-Flux-Residual
  Residual-Control   Outer-Iter.   Inner-Iter.     Column Row Layer    Maximum-Head-Change  Column Row Layer    Maximum-Flux-Residual          L2-NORM 
          0                 1           2             5    8     1       0.5507985271E-01       5    8    1         0.3006268673E+01      0.5704962138E+01
          0                 2           2             5    8     1      -0.1066744477E+00       5    8    1        -0.5878653248E+01      0.1417306446E+02
          0                 3           2             4    7     1      -0.9735093145E-02       4    7    1        -0.5226869947E+00      0.1265616106E+01
          0                 4           2             4    7     1       0.6630178156E-03       4    7    1         0.3659437293E-01      0.8859450358E-01
          0                 5           1             4    7     1      -0.2638835844E-04       4    7    1        -0.1497109962E-02      0.3625820508E-02

    ------------------------------------------------
       NWT REQUIRED            5 OUTER ITERATIONS 
       AND A TOTAL OF          9 INNER ITERATIONS.
    ------------------------------------------------

 NO OUTPUT CONTROL FOR STRESS PERIOD   45   TIME STEP   20
 
 SOLVING FOR HEAD 
                                                   Max.-Head-Change                         Max.-Flux-Residual
  Residual-Control   Outer-Iter.   Inner-Iter.     Column Row Layer    Maximum-Head-Change  Column Row Layer    Maximum-Flux-Residual          L2-NORM 
          0                 1           2             5    8     1       0.5598568097E-01       5    8    1         0.3055004774E+01      0.5876857830E+01
          0                 2           2             5    8     1      -0.1071679732E+00       5    8    1        -0.5905846513E+01      0.1424340309E+02
          0                 3           2             4    7     1      -0.9279421485E-02       4    7    1        -0.4982325685E+00      0.1205592819E+01
          0                 4           2             4    7     1       0.6319838842E-03       4    7    1         0.3488232844E-01      0.8439250870E-01
          0                 5           1             4    7     1      -0.2515319601E-04       4    7    1        -0.1427070914E-02      0.3453792332E-02

    ------------------------------------------------
       NWT REQUIRED            5 OUTER ITERATIONS 
       AND A TOTAL OF          9 INNER ITERATIONS.
    ------------------------------------------------

 NO OUTPUT CONTROL FOR STRESS PERIOD   45   TIME STEP   21
 
 SOLVING FOR HEAD 
                                                   Max.-Head-Change                         Max.-Flux-Residual
  Residual-Control   Outer-Iter.   Inner-Iter.     Column Row Layer    Maximum-Head-Change  Column Row Layer    Maximum-Flux-Residual          L2-NORM 
          0                 1           2             5    8     1       0.5686087992E-01       5    8    1         0.3102067343E+01      0.6043486146E+01
          0                 2           2             5    8     1      -0.1076493250E+00       5    8    1        -0.5932366023E+01      0.1431206727E+02
          0                 3           2             4    7     1      -0.8834092345E-02       4    7    1        -0.4743327408E+00      0.1146962512E+01
          0                 4           2             4    7     1       0.6016543374E-03       4    7    1         0.3320911092E-01      0.8028729241E-01
          0                 5           1             4    7     1      -0.2394606868E-04       4    7    1        -0.1358620249E-02      0.3285332013E-02

    ------------------------------------------------
       NWT REQUIRED            5 OUTER ITERATIONS 
       AND A TOTAL OF          9 INNER ITERATIONS.
    ------------------------------------------------

 NO OUTPUT CONTROL FOR STRESS PERIOD   45   TIME STEP   22
 
 SOLVING FOR HEAD 
                                                   Max.-Head-Change                         Max.-Flux-Residual
  Residual-Control   Outer-Iter.   Inner-Iter.     Column Row Layer    Maximum-Head-Change  Column Row Layer    Maximum-Flux-Residual          L2-NORM 
          0                 1           2             5    8     1       0.5770713841E-01       5    8    1         0.3147549824E+01      0.6205036368E+01
          0                 2           2             5    8     1      -0.1081190311E+00       5    8    1        -0.5958241152E+01      0.1437912324E+02
          0                 3           2             4    7     1      -0.8398547451E-02       4    7    1        -0.4509575964E+00      0.1089649365E+01
          0                 4           2             4    7     1       0.5719911541E-03       4    7    1         0.3157262601E-01      0.7627303680E-01
          0                 5           1             4    7     1      -0.2276546274E-04       4    7    1        -0.1291672304E-02      0.3121100782E-02

    ------------------------------------------------
       NWT REQUIRED            5 OUTER ITERATIONS 
       AND A TOTAL OF          9 INNER ITERATIONS.
    ------------------------------------------------

 NO OUTPUT CONTROL FOR STRESS PERIOD   45   TIME STEP   23
 
 SOLVING FOR HEAD 
                                                   Max.-Head-Change                         Max.-Flux-Residual
  Residual-Control   Outer-Iter.   Inner-Iter.     Column Row Layer    Maximum-Head-Change  Column Row Layer    Maximum-Flux-Residual          L2-NORM 
          0                 1           2             5    8     1       0.5852561835E-01       5    8    1         0.3191515969E+01      0.6361671201E+01
          0                 2           2             5    8     1      -0.1085776375E+00       5    8    1        -0.5983502116E+01      0.1444464337E+02
          0                 3           2             4    7     1      -0.7972347945E-02       4    7    1        -0.4280836283E+00      0.1033593838E+01
          0                 4           2             4    7     1       0.5429644452E-03       4    7    1         0.2997122795E-01      0.7234673790E-01
          0                 5           1             4    7     1      -0.2161018879E-04       4    7    1        -0.1226159744E-02      0.2960463441E-02

    ------------------------------------------------
       NWT REQUIRED            5 OUTER ITERATIONS 
       AND A TOTAL OF          9 INNER ITERATIONS.
    ------------------------------------------------

 NO OUTPUT CONTROL FOR STRESS PERIOD   45   TIME STEP   24
 
 SOLVING FOR HEAD 
                                                   Max.-Head-Change                         Max.-Flux-Residual
  Residual-Control   Outer-Iter.   Inner-Iter.     Column Row Layer    Maximum-Head-Change  Column Row Layer    Maximum-Flux-Residual          L2-NORM 
          0                 1           2             5    8     1       0.5931770001E-01       5    8    1         0.3234041750E+01      0.6513577119E+01
          0                 2           2             5    8     1      -0.1090256595E+00       5    8    1        -0.6008177493E+01      0.1450869506E+02
          0                 3           2             4    7     1      -0.7555047146E-02       4    7    1        -0.4056869000E+00      0.9787354884E+00
          0                 4           2             4    7     1       0.5145437886E-03       4    7    1         0.2840324093E-01      0.6850405350E-01
          0                 5           1             4    7     1      -0.2047903567E-04       4    7    1        -0.1162014015E-02      0.2803247080E-02

    ------------------------------------------------
       NWT REQUIRED            5 OUTER ITERATIONS 
       AND A TOTAL OF          9 INNER ITERATIONS.
    ------------------------------------------------

 NO OUTPUT CONTROL FOR STRESS PERIOD   45   TIME STEP   25
 
 SOLVING FOR HEAD 
                                                   Max.-Head-Change                         Max.-Flux-Residual
  Residual-Control   Outer-Iter.   Inner-Iter.     Column Row Layer    Maximum-Head-Change  Column Row Layer    Maximum-Flux-Residual          L2-NORM 
          0                 1           2             5    8     1       0.6008468607E-01       5    8    1         0.3275198679E+01      0.6660941070E+01
          0                 2           2             5    8     1      -0.1094635355E+00       5    8    1        -0.6032291601E+01      0.1457133558E+02
          0                 3           2             4    7     1      -0.7146372278E-02       4    7    1        -0.3837528122E+00      0.9250369494E+00
          0                 4           2             4    7     1       0.4867106077E-03       4    7    1         0.2686764292E-01      0.6474245076E-01
          0                 5           1             4    7     1      -0.1937126473E-04       4    7    1        -0.1099193280E-02      0.2649339380E-02

    ------------------------------------------------
       NWT REQUIRED            5 OUTER ITERATIONS 
       AND A TOTAL OF          9 INNER ITERATIONS.
    ------------------------------------------------

 NO OUTPUT CONTROL FOR STRESS PERIOD   45   TIME STEP   26
 
 SOLVING FOR HEAD 
                                                   Max.-Head-Change                         Max.-Flux-Residual
  Residual-Control   Outer-Iter.   Inner-Iter.     Column Row Layer    Maximum-Head-Change  Column Row Layer    Maximum-Flux-Residual          L2-NORM 
          0                 1           2             5    8     1       0.6082780451E-01       5    8    1         0.3315054412E+01      0.6803918118E+01
          0                 2           2             5    8     1      -0.1098917313E+00       5    8    1        -0.6055870279E+01      0.1463262374E+02
          0                 3           2             4    7     1      -0.6745923942E-02       4    7    1        -0.3622599624E+00      0.8724443303E+00
          0                 4           2             4    7     1       0.4594377006E-03       4    7    1         0.2536293547E-01      0.6105805090E-01
          0                 5           1             4    7     1      -0.1828579260E-04       4    7    1        -0.1037636260E-02      0.2498596998E-02

    ------------------------------------------------
       NWT REQUIRED            5 OUTER ITERATIONS 
       AND A TOTAL OF          9 INNER ITERATIONS.
    ------------------------------------------------

 NO OUTPUT CONTROL FOR STRESS PERIOD   45   TIME STEP   27
 
 SOLVING FOR HEAD 
                                                   Max.-Head-Change                         Max.-Flux-Residual
  Residual-Control   Outer-Iter.   Inner-Iter.     Column Row Layer    Maximum-Head-Change  Column Row Layer    Maximum-Flux-Residual          L2-NORM 
          0                 1           2             5    8     1       0.1548722141E+00       5    8    1         0.8507177478E+01      0.1045590151E+02
          0                 2           2             4    7     1      -0.1100105925E+00       5    6    1        -0.6035815920E+01      0.1358909262E+02
          0                 3           2             5    8     1      -0.3221905362E-01       5    8    1        -0.1818414195E+01      0.1967836299E+01
          0                 4           2             5    8     1      -0.1312674236E-01       5    8    1        -0.7459099422E+00      0.7477644907E+00
          0                 5           1             5    8     1      -0.5348045127E-02       5    8    1        -0.3035518115E+00      0.3035621721E+00
          0                 6           1             5    8     1      -0.2178849208E-02       5    8    1        -0.1236778259E+00      0.1236784343E+00
          0                 7           1             5    8     1      -0.8876736893E-03       5    8    1        -0.5038634834E-01      0.5038661013E-01
          0                 8           1             5    8     1      -0.3616376199E-03       5    8    1        -0.2052717029E-01      0.2052727675E-01
          0                 9           1             5    8     1      -0.1473289002E-03       5    8    1        -0.8362562144E-02      0.8362605560E-02
          0                10           1             5    8     1      -0.6002005427E-04       5    8    1        -0.3406777215E-02      0.3406794991E-02

    ------------------------------------------------
       NWT REQUIRED           10 OUTER ITERATIONS 
       AND A TOTAL OF         14 INNER ITERATIONS.
    ------------------------------------------------

 NO OUTPUT CONTROL FOR STRESS PERIOD   45   TIME STEP   28
 
 SOLVING FOR HEAD 
                                                   Max.-Head-Change                         Max.-Flux-Residual
  Residual-Control   Outer-Iter.   Inner-Iter.     Column Row Layer    Maximum-Head-Change  Column Row Layer    Maximum-Flux-Residual          L2-NORM 
          0                 1           2             5    8     1       0.2284018014E+00       5    8    1         0.1256080919E+02      0.1403498059E+02
          0                 2           2             4    7     1      -0.1104582539E+00       5    6    1        -0.6060298969E+01      0.1346437963E+02
          0                 3           2             5    8     1      -0.2062531517E-01       5    8    1        -0.1160933502E+01      0.1358440624E+01
          0                 4           2             5    8     1      -0.8403078563E-02       5    8    1        -0.4777185009E+00      0.4802608408E+00
          0                 5           1             5    8     1      -0.3423499460E-02       5    8    1        -0.1943091237E+00      0.1943219780E+00
          0                 6           1             5    8     1      -0.1394749276E-02       5    8    1        -0.7917110450E-01      0.7917148111E-01
          0                 7           1             5    8     1      -0.5682194549E-03       5    8    1        -0.3225380045E-01      0.3225396844E-01
          0                 8           1             5    8     1      -0.2314888840E-03       5    8    1        -0.1313986535E-01      0.1313993380E-01
          0                 9           1             5    8     1      -0.9430577186E-04       5    8    1        -0.5352972099E-02      0.5353000516E-02

    ------------------------------------------------
       NWT REQUIRED            9 OUTER ITERATIONS 
       AND A TOTAL OF         13 INNER ITERATIONS.
    ------------------------------------------------

 NO OUTPUT CONTROL FOR STRESS PERIOD   45   TIME STEP   29
 
 SOLVING FOR HEAD 
                                                   Max.-Head-Change                         Max.-Flux-Residual
  Residual-Control   Outer-Iter.   Inner-Iter.     Column Row Layer    Maximum-Head-Change  Column Row Layer    Maximum-Flux-Residual          L2-NORM 
          0                 1           2             5    8     1       0.2145019477E+00       5    8    1         0.1178060686E+02      0.1345891917E+02
          0                 2           2             4    7     1      -0.1109308902E+00       5    6    1        -0.6084517309E+01      0.1356009127E+02
          0                 3           2             5    8     1      -0.2252626675E-01       5    8    1        -0.1268972137E+01      0.1429751713E+01
          0                 4           2             5    8     1      -0.9184198547E-02       5    8    1        -0.5216773451E+00      0.5237086224E+00
          0                 5           1             5    8     1      -0.3744445477E-02       5    8    1        -0.2123995783E+00      0.2124101580E+00
          0                 6           1             5    8     1      -0.1526608676E-02       5    8    1        -0.8660260960E-01      0.8660301317E-01
          0                 7           1             5    8     1      -0.6223891325E-03       5    8    1        -0.3530691580E-01      0.3530709310E-01
          0                 8           1             5    8     1      -0.2537408328E-03       5    8    1        -0.1439408588E-01      0.1439415800E-01
          0                 9           1             5    8     1      -0.1034457892E-03       5    8    1        -0.5868167068E-02      0.5868196517E-02
          0                10           1             5    8     1      -0.4217250240E-04       5    8    1        -0.2392296259E-02      0.2392308372E-02

    ------------------------------------------------
       NWT REQUIRED           10 OUTER ITERATIONS 
       AND A TOTAL OF         14 INNER ITERATIONS.
    ------------------------------------------------

 NO OUTPUT CONTROL FOR STRESS PERIOD   45   TIME STEP   30



 STREAM LISTING     PERIOD     45   STEP       30

 LAYER ROW COL. STREAM  RCH.  FLOW INTO     FLOW TO   FLOW OUT OF   OVRLND.     DIRECT     STREAM       STREAM     STREAM     STREAM   STREAMBED  STREAMBED
                SEG.NO.  NO.  STRM. RCH.    AQUIFER    STRM. RCH.    RUNOFF     PRECIP       ET          HEAD       DEPTH      WIDTH   CONDCTNC.   GRADIENT

   1    1    1     1     1    1.3875E+01  1.7894E-01   1.3696E+01  0.000E+00  0.000E+00  0.000E+00  1.09404E+03  9.876E-01  9.972E+00  4.487E-02  1.329E+00
   1    2    2     1     2    1.3696E+01  2.7573E-01   1.3420E+01  0.000E+00  0.000E+00  0.000E+00  1.08904E+03  9.829E-01  9.890E+00  6.923E-02  1.328E+00
   1    3    3     1     3    1.3420E+01  2.3380E-01   1.3186E+01  0.000E+00  0.000E+00  0.000E+00  1.08340E+03  9.775E-01  9.797E+00  5.878E-02  1.326E+00
   1    3    4     1     4    1.3186E+01  2.1419E-01   1.2972E+01  0.000E+00  0.000E+00  0.000E+00  1.07838E+03  9.727E-01  9.714E+00  5.391E-02  1.324E+00
   1    4    5     2     1    1.0972E+01  2.9101E-01   1.0681E+01  0.000E+00  0.000E+00  0.000E+00  1.07266E+03  7.309E-01  1.200E+01  7.800E-02  1.244E+00
   1    5    6     2     2    1.0681E+01  2.2322E-01   1.0458E+01  0.000E+00  0.000E+00  0.000E+00  1.06723E+03  7.204E-01  1.200E+01  6.000E-02  1.240E+00
   1    6    6     2     3    1.0458E+01  2.2267E-01   1.0235E+01  0.000E+00  0.000E+00  0.000E+00  1.06250E+03  7.112E-01  1.200E+01  6.000E-02  1.237E+00
   1    7    6     2     4    1.0235E+01  2.2212E-01   1.0013E+01  0.000E+00  0.000E+00  0.000E+00  1.05778E+03  7.020E-01  1.200E+01  6.000E-02  1.234E+00
   1    8    6     2     5    1.0013E+01  2.2157E-01   9.7913E+00  0.000E+00  0.000E+00  0.000E+00  1.05305E+03  6.928E-01  1.200E+01  6.000E-02  1.231E+00
   1    3    5     3     1    2.0000E+00  2.8252E-01   1.7175E+00  0.000E+00  0.000E+00  0.000E+00  1.07555E+03  1.909E+00  9.636E+00  7.227E-02  1.955E+00
   1    3    6     3     2    1.7175E+00  2.4905E-01   1.4684E+00  0.000E+00  0.000E+00  0.000E+00  1.07264E+03  1.727E+00  8.909E+00  6.682E-02  1.864E+00
   1    3    7     3     3    1.4684E+00  1.9718E-01   1.2712E+00  0.000E+00  0.000E+00  0.000E+00  1.06987E+03  1.555E+00  8.218E+00  5.547E-02  1.777E+00
   1    4    8     3     4    1.2712E+00  2.2567E-01   1.0456E+00  0.000E+00  0.000E+00  0.000E+00  1.06682E+03  1.364E+00  7.455E+00  6.709E-02  1.682E+00
   1    5    8     3     5    1.0456E+00  1.5790E-01   8.8768E-01  0.000E+00  0.000E+00  0.000E+00  1.06362E+03  1.164E+00  6.655E+00  4.991E-02  1.582E+00
   1    6    8     3     6    8.8768E-01  5.5980E-02   8.3170E-01  0.000E+00  0.000E+00  0.000E+00  1.06158E+03  1.036E+00  6.145E+00  1.844E-02  1.518E+00
   1    5   10     4     1    1.0000E+01  9.0919E-02   9.9091E+00  0.000E+00  0.000E+00  0.000E+00  1.07836E+03  6.368E-01  1.000E+01  2.500E-02  1.212E+00
   1    5    9     4     2    9.9091E+00  1.8158E-01   9.7275E+00  0.000E+00  0.000E+00  0.000E+00  1.07154E+03  6.315E-01  1.000E+01  5.000E-02  1.211E+00
   1    6    8     4     3    9.7275E+00  1.2689E-01   9.6006E+00  0.000E+00  0.000E+00  0.000E+00  1.06381E+03  6.256E-01  1.000E+01  3.500E-02  1.209E+00
   1    6    8     5     1    1.0432E+01  2.2686E-01   1.0205E+01  0.000E+00  0.000E+00  0.000E+00  1.05868E+03  6.790E-01  1.542E+01  6.166E-02  1.226E+00
   1    7    7     5     2    1.0205E+01  2.7894E-01   9.9265E+00  0.000E+00  0.000E+00  0.000E+00  1.05417E+03  6.732E-01  1.519E+01  7.594E-02  1.224E+00
   1    8    7     5     3    9.9265E+00  1.9221E-01   9.7343E+00  0.000E+00  0.000E+00  0.000E+00  1.04992E+03  6.676E-01  1.497E+01  5.241E-02  1.223E+00
   1    8    6     5     4    9.7343E+00  1.3577E-01   9.5985E+00  0.000E+00  0.000E+00  0.000E+00  1.04691E+03  6.637E-01  1.482E+01  3.706E-02  1.221E+00
   1    9    6     6     1    9.5985E+00  2.2097E-01   9.3776E+00  0.000E+00  0.000E+00  0.000E+00  1.04341E+03  6.828E-01  1.200E+01  6.000E-02  1.228E+00
   1   10    7     6     2    9.3776E+00  2.2039E-01   9.1572E+00  0.000E+00  0.000E+00  0.000E+00  1.03885E+03  6.732E-01  1.200E+01  6.000E-02  1.224E+00
   1   11    7     6     3    9.1572E+00  2.1981E-01   8.9374E+00  0.000E+00  0.000E+00  0.000E+00  1.03430E+03  6.636E-01  1.200E+01  6.000E-02  1.221E+00
   1   12    7     6     4    8.9374E+00  2.1923E-01   8.7181E+00  0.000E+00  0.000E+00  0.000E+00  1.02974E+03  6.539E-01  1.200E+01  6.000E-02  1.218E+00
   1   13    7     6     5    8.7181E+00  2.2692E-03   8.7159E+00  0.000E+00  0.000E+00  0.000E+00  1.02656E+03  6.489E-01  1.200E+01  2.400E-02  3.152E-02
   1   14    9     7     1    1.5000E+02  1.4126E+00   1.4859E+02  0.000E+00  0.000E+00  0.000E+00  1.03987E+03  2.288E+00  5.529E+01  5.593E-01  8.419E-01
   1   13    8     7     2    1.4859E+02  2.0480E+00   1.4654E+02  0.000E+00  0.000E+00  0.000E+00  1.03478E+03  2.278E+00  5.525E+01  6.147E-01  1.111E+00
   1   13    7     7     3    1.4654E+02  1.8000E+00   1.4474E+02  0.000E+00  0.000E+00  0.000E+00  1.02969E+03  2.268E+00  5.521E+01  5.583E-01  1.075E+00
   1   13    6     8     1    1.5346E+02  1.1406E+00   1.5231E+02  0.000E+00  0.000E+00  0.000E+00  1.02471E+03  2.837E+00  4.114E+01  4.192E-01  9.070E-01
   1   13    5     8     2    1.5231E+02  3.8443E-01   1.5193E+02  0.000E+00  0.000E+00  0.000E+00  1.01846E+03  2.832E+00  4.106E+01  4.184E-01  3.063E-01
   1   13    4     8     3    1.5193E+02 -1.7123E+00   1.5364E+02  0.000E+00  0.000E+00  0.000E+00  1.01221E+03  2.836E+00  4.113E+01  4.191E+00 -1.362E-01
   1   13    3     8     4    1.5364E+02 -3.2731E+00   1.5692E+02  0.000E+00  0.000E+00  0.000E+00  1.00598E+03  2.854E+00  4.138E+01  4.217E+00 -2.588E-01
   1   13    2     8     5    1.5692E+02 -2.4781E+00   1.5939E+02  0.000E+00  0.000E+00  0.000E+00  9.99748E+02  2.873E+00  4.166E+01  4.246E+00 -1.946E-01
   1   13    1     8     6    1.5939E+02 -1.9523E+00   1.6135E+02  0.000E+00  0.000E+00  0.000E+00  9.94763E+02  2.888E+00  4.188E+01  2.561E+00 -2.541E-01
   1    8    6     9     1    9.7913E+00  0.0000E+00   9.7913E+00  0.000E+00  0.000E+00  0.000E+00  1.08099E+03  2.238E+00  4.000E+00  0.000E+00  1.746E+00
   1    8    5     9     2    9.7913E+00  0.0000E+00   9.7913E+00  0.000E+00  0.000E+00  0.000E+00  1.08049E+03  2.238E+00  4.000E+00  0.000E+00  1.746E+00





UNSATURATED ZONE PACKAGE VOLUMETRIC BUDGET FOR  TIME STEP    30 STRESS PERIOD   45
  ------------------------------------------------------------------------------



     CUMULATIVE VOLUMES      L**3       RATES FOR THIS TIME STEP      L**3/T
     ------------------                 ------------------------

           IN:                                      IN:
           ---                                      ---
        INFILTRATION =  6842265451.0291          INFILTRATION =          49.6250

          OUT:                                     OUT:
          ----                                     ----
              UZF ET =  1670851187.6330                UZF ET =          49.5752
        UZF RECHARGE =  4754392038.2101          UZF RECHARGE =          13.7134

            IN - OUT =   417022225.1859              IN - OUT =         -13.6636

          STORAGE:                                 STORAGE:
          --------                                 --------
      STORAGE CHANGE =   417055413.2854        STORAGE CHANGE =         -13.6636

 PERCENT DISCREPANCY IS DIFFERENCE BETWEEN IN-OUT MINUS CHANGE IN STORAGE
 DIVIDED BY THE AVERAGE OF IN AND OUT TIMES 100

 PERCENT DISCREPANCY =          -0.00     PERCENT DISCREPANCY =           0.00






1
  VOLUMETRIC BUDGET FOR AGRICULTURAL FIELDS AT  END OF TIME STEP   30, STRESS PERIOD  45
  ------------------------------------------------------------------------------

     CUMULATIVE VOLUMES      L**3       RATES FOR THIS TIME STEP      L**3/T
     ------------------                 ------------------------

           IN:                                      IN:
           ---                                      ---
               AG WELLS  =  5797084672.0000                 AG WELLS  =          38.9860
      DIVERSION SEGMENTS =   947044992.0000        DIVERSION SEGMENTS =           9.7913
           GW IRRIGATION =           0.0000             GW IRRIGATION =           0.0000
           SW IRRIGATION =           0.0000             SW IRRIGATION =           0.0000
        SYSTEM LOSSES GW =           0.0000          SYSTEM LOSSES GW =           0.0000
        SYSTEM LOSSES SW =           0.0000          SYSTEM LOSSES SW =           0.0000

                TOTAL IN =  6744129536.0000                  TOTAL IN =          48.7773

          OUT:                                     OUT:
          ----                                     ----
               AG WELLS  =           0.0000                 AG WELLS  =           0.0000
      DIVERSION SEGMENTS =           0.0000        DIVERSION SEGMENTS =           0.0000
           GW IRRIGATION =  5797084672.0000             GW IRRIGATION =          38.9860
           SW IRRIGATION =   947061760.0000             SW IRRIGATION =           9.7915
        SYSTEM LOSSES GW =           0.0000          SYSTEM LOSSES GW =           0.0000
        SYSTEM LOSSES SW =           0.0000          SYSTEM LOSSES SW =           0.0000

               TOTAL OUT =  6744146432.0000                 TOTAL OUT =          48.7775

                IN - OUT =      -16896.0000                  IN - OUT =      -1.9836E-04

     PERCENT DISCREPANCY =          -0.00         PERCENT DISCREPANCY =          -0.00



1
  VOLUMETRIC BUDGET FOR ENTIRE MODEL AT END OF TIME STEP   30, STRESS PERIOD  45
  ------------------------------------------------------------------------------

     CUMULATIVE VOLUMES      L**3       RATES FOR THIS TIME STEP      L**3/T
     ------------------                 ------------------------

           IN:                                      IN:
           ---                                      ---
             STORAGE     =  5767018496.0000               STORAGE     =          31.3605
       CONSTANT HEAD     =           0.0000         CONSTANT HEAD     =           0.0000
     HEAD DEP BOUNDS     =    33496646.0000       HEAD DEP BOUNDS     =           0.2910
      STREAM LEAKAGE     =  1405835264.0000        STREAM LEAKAGE     =          12.1531
        UZF RECHARGE     =  4754390528.0000          UZF RECHARGE     =          13.7134
               GW ET     =           0.0000                 GW ET     =           0.0000
     SURFACE LEAKAGE     =           0.0000       SURFACE LEAKAGE     =           0.0000
           AG WELLS      =           0.0000             AG WELLS      =           0.0000

                TOTAL IN = 11960740864.0000                  TOTAL IN =          57.5180

          OUT:                                     OUT:
          ----                                     ----
             STORAGE     =  5014444032.0000               STORAGE     =           8.8311
       CONSTANT HEAD     =           0.0000         CONSTANT HEAD     =           0.0000
     HEAD DEP BOUNDS     =    33271412.0000       HEAD DEP BOUNDS     =           0.2860
      STREAM LEAKAGE     =  1115811456.0000        STREAM LEAKAGE     =           9.4158
        UZF RECHARGE     =           0.0000          UZF RECHARGE     =           0.0000
               GW ET     =           0.0000                 GW ET     =           0.0000
     SURFACE LEAKAGE     =           0.0000       SURFACE LEAKAGE     =           0.0000
           AG WELLS      =  5797084672.0000             AG WELLS      =          38.9860

               TOTAL OUT = 11960610816.0000                 TOTAL OUT =          57.5190

                IN - OUT =      130048.0000                  IN - OUT =      -9.7656E-04

     PERCENT DISCREPANCY =           0.00         PERCENT DISCREPANCY =          -0.00






         TIME SUMMARY AT END OF TIME STEP   30 IN STRESS PERIOD   45
                    SECONDS     MINUTES      HOURS       DAYS        YEARS
                    -----------------------------------------------------------
   TIME STEP LENGTH  87667.      1461.1      24.352      1.0147     2.77799E-03
 STRESS PERIOD TIME 2.63000E+06  43833.      730.56      30.440     8.33397E-02
         TOTAL TIME 1.15805E+08 1.93009E+06  32168.      1340.3      3.6696    
1
1
                            STRESS PERIOD NO.   46, LENGTH =   2630000.    
                            -----------------------------------------------

                              NUMBER OF TIME STEPS =    30

                               MULTIPLIER FOR DELT =     1.000

                            INITIAL TIME STEP SIZE =   87666.66    

 REUSING NON-PARAMETER GHB CELLS FROM LAST STRESS PERIOD

      2 GHB CELLS

 REUSING STREAM SEGMENT DATA FROM LAST STRESS PERIOD



            AREAL INFILTRATION RATE
 READING ON UNIT   19 WITH FORMAT: (FREE)              

            1           2           3           4           5           6           7           8           9          10
 ........................................................................................................................
   1   1.0000E-10  2.0000E-10   0.000       0.000       0.000       0.000       0.000       0.000       0.000       0.000    
   2   2.0000E-10  1.0000E-10  2.0000E-10   0.000       0.000      8.0000E-10  8.0000E-10  5.0000E-10   0.000       0.000    
   3    0.000      5.0000E-10  1.0000E-10  1.0000E-10  8.0000E-10  8.0000E-10  5.0000E-10  5.0000E-10   0.000       0.000    
   4   8.0000E-10  5.0000E-10  1.0000E-10  1.0000E-10  1.0000E-10  1.0000E-10  1.0000E-10  1.0000E-10  2.0000E-10   0.000    
   5   8.0000E-10  5.0000E-10  1.0000E-10  1.0000E-10  1.0000E-10  1.0000E-10  1.0000E-10  1.0000E-10  1.0000E-10  1.0000E-10
   6   8.0000E-10  5.0000E-10  5.0000E-10  2.0000E-10  2.0000E-10  1.0000E-10  1.0000E-10  1.0000E-10  1.0000E-10  5.0000E-10
   7   8.0000E-10  5.0000E-10  5.0000E-10  2.0000E-10  2.0000E-10  1.0000E-10  1.0000E-10  2.0000E-10  2.0000E-10   0.000    
   8    0.000      5.0000E-10  5.0000E-10  2.0000E-10  2.0000E-10  1.0000E-10  1.0000E-10  2.0000E-10  5.0000E-10   0.000    
   9    0.000      5.0000E-10  5.0000E-10  2.0000E-10  2.0000E-10  1.0000E-10  1.0000E-10  2.0000E-10  5.0000E-10   0.000    
  10    0.000      5.0000E-10  5.0000E-10  2.0000E-10  2.0000E-10  1.0000E-10  1.0000E-10  2.0000E-10  5.0000E-10  8.0000E-10
  11    0.000      1.0000E-10  1.0000E-10  1.0000E-10  1.0000E-10  1.0000E-10  1.0000E-10  2.0000E-10  5.0000E-10   0.000    
  12   1.0000E-10  1.0000E-10  1.0000E-10  1.0000E-10  1.0000E-10  1.0000E-10  1.0000E-10  1.0000E-10  2.0000E-10   0.000    
  13   1.0000E-10  1.0000E-10  2.0000E-10  2.0000E-10  2.0000E-10  2.0000E-10  2.0000E-10  1.0000E-10  1.0000E-10   0.000    
  14    0.000      2.0000E-10  5.0000E-10  5.0000E-10  5.0000E-10  5.0000E-10  5.0000E-10  2.0000E-10  1.0000E-10   0.000    
  15    0.000       0.000      8.0000E-10  8.0000E-10  8.0000E-10  8.0000E-10   0.000       0.000       0.000       0.000    

                  ET RATE =  7.500000E-08

 USING ET EXTINCTION DEPTH FROM PREVIOUS STRESS PERIOD. CURRENT PERIOD IS:      46

 USING EXTINCTION WATER CONTENT FROM PREVIOUS STRESS PERIOD. CURRENT PERIOD IS:      46

 USING AIR ENTRY PRESSURE FROM PREVIOUS STRESS PERIOD. CURRENT PERIOD IS:      46

 USING ROOT PRESSURE HEAD FROM PREVIOUS STRESS PERIOD. CURRENT PERIOD IS:      46

 USING ROOT ACTIVITY FROM PREVIOUS STRESS PERIOD. CURRENT PERIOD IS:      46

 PROCESSING AG STRESS PERIOD DATA

 READING AG STRESS PERIOD DATA

 READING IRRIGATION SEGMENT

 READING IRRIGATION WELL

 READING SUPPLEMENTAL WELL

 END PROCESSING AG STRESS PERIOD DATA OPTIONS
 
 SOLVING FOR HEAD 
                                                   Max.-Head-Change                         Max.-Flux-Residual
  Residual-Control   Outer-Iter.   Inner-Iter.     Column Row Layer    Maximum-Head-Change  Column Row Layer    Maximum-Flux-Residual          L2-NORM 
          0                 1           2             5    8     1       0.2024827666E+00       5    8    1         0.1110110458E+02      0.1298519619E+02
          0                 2           2             5    8     1       0.7430989927E-01       5    8    1         0.4116466461E+01      0.4294308587E+01
          0                 3           2             5    8     1       0.2906140867E-01       5    8    1         0.1602725101E+01      0.1605095477E+01
          0                 4           2             5    8     1       0.1136549671E-01       5    8    1         0.6272506043E+00      0.6272575233E+00
          0                 5           1             5    8     1       0.4444884623E-02       5    8    1         0.2452925577E+00      0.2452940417E+00
          0                 6           1             5    8     1       0.1738331941E-02       5    8    1         0.9593110899E-01      0.9593158463E-01
          0                 7           1             5    8     1       0.6798372921E-03       5    8    1         0.3751730834E-01      0.3751749768E-01
          0                 8           1             5    8     1       0.2658748633E-03       5    8    1         0.1467249679E-01      0.1467257070E-01
          0                 9           1             5    8     1       0.1039799455E-03       5    8    1         0.5738208921E-02      0.5738237854E-02
          0                10           1             5    8     1       0.4066510433E-04       5    8    1         0.2244133441E-02      0.2244144845E-02

    ------------------------------------------------
       NWT REQUIRED           10 OUTER ITERATIONS 
       AND A TOTAL OF         14 INNER ITERATIONS.
    ------------------------------------------------

 NO OUTPUT CONTROL FOR STRESS PERIOD   46   TIME STEP    1
 
 SOLVING FOR HEAD 
                                                   Max.-Head-Change                         Max.-Flux-Residual
  Residual-Control   Outer-Iter.   Inner-Iter.     Column Row Layer    Maximum-Head-Change  Column Row Layer    Maximum-Flux-Residual          L2-NORM 
          0                 1           2             5    8     1       0.1830584027E+00       5    8    1         0.1001605338E+02      0.1206955521E+02
          0                 2           2             5    8     1       0.4699287038E-01       5    8    1         0.2642518861E+01      0.4452209535E+01
          0                 3           2             4    7     1      -0.2713744843E+00       4    7    1        -0.1456498918E+02      0.3530269877E+02
          0                 4           2             5    8     1      -0.9562188370E-01       5    8    1        -0.5465887922E+01      0.6226757661E+01
          0                 5           2             5    8     1      -0.3898510104E-01       5    8    1        -0.2210093605E+01      0.2213579263E+01
          0                 6           2             5    8     1      -0.1589393129E-01       5    8    1        -0.9016969872E+00      0.9017001073E+00
          0                 7           2             5    8     1      -0.6479741777E-02       5    8    1        -0.3675969464E+00      0.3675988237E+00
          0                 8           1             5    8     1      -0.2641666447E-02       5    8    1        -0.1498607943E+00      0.1498615449E+00
          0                 9           1             5    8     1      -0.1076941931E-02       5    8    1        -0.6109393604E-01      0.6109424242E-01
          0                10           1             5    8     1      -0.4390365377E-03       5    8    1        -0.2490590687E-01      0.2490603172E-01
                                                   Max.-Head-Change                         Max.-Flux-Residual
  Residual-Control   Outer-Iter.   Inner-Iter.     Column Row Layer    Maximum-Head-Change  Column Row Layer    Maximum-Flux-Residual          L2-NORM 
          0                11           1             5    8     1      -0.1789794349E-03       5    8    1        -0.1015314860E-01      0.1015320059E-01
          0                12           1             5    8     1      -0.7296249883E-04       5    8    1        -0.4138979157E-02      0.4139001767E-02

    ------------------------------------------------
       NWT REQUIRED           12 OUTER ITERATIONS 
       AND A TOTAL OF         19 INNER ITERATIONS.
    ------------------------------------------------

 NO OUTPUT CONTROL FOR STRESS PERIOD   46   TIME STEP    2
 
 SOLVING FOR HEAD 
                                                   Max.-Head-Change                         Max.-Flux-Residual
  Residual-Control   Outer-Iter.   Inner-Iter.     Column Row Layer    Maximum-Head-Change  Column Row Layer    Maximum-Flux-Residual          L2-NORM 
          0                 1           2             5    8     1       0.1875494023E+00       5    8    1         0.1026334665E+02      0.1259461005E+02
          0                 2           2             5    8     1       0.7334567676E-01       5    8    1         0.4056786849E+01      0.4121922391E+01
          0                 3           2             5    8     1       0.2868338609E-01       5    8    1         0.1582365482E+01      0.1583241074E+01
          0                 4           2             5    8     1       0.1121728502E-01       5    8    1         0.6190697054E+00      0.6190729538E+00
          0                 5           1             5    8     1       0.4386775618E-02       5    8    1         0.2420928482E+00      0.2420942027E+00
          0                 6           1             5    8     1       0.1715549407E-02       5    8    1         0.9467631032E-01      0.9467678424E-01
          0                 7           1             5    8     1       0.6709051026E-03       5    8    1         0.3702535587E-01      0.3702554285E-01
          0                 8           1             5    8     1       0.2623729035E-03       5    8    1         0.1447962027E-01      0.1447969331E-01
          0                 9           1             5    8     1       0.1026069728E-03       5    8    1         0.5662589705E-02      0.5662618256E-02
          0                10           1             5    8     1       0.4012682273E-04       5    8    1         0.2214486359E-02      0.2214497520E-02

    ------------------------------------------------
       NWT REQUIRED           10 OUTER ITERATIONS 
       AND A TOTAL OF         14 INNER ITERATIONS.
    ------------------------------------------------

 NO OUTPUT CONTROL FOR STRESS PERIOD   46   TIME STEP    3
 
 SOLVING FOR HEAD 
                                                   Max.-Head-Change                         Max.-Flux-Residual
  Residual-Control   Outer-Iter.   Inner-Iter.     Column Row Layer    Maximum-Head-Change  Column Row Layer    Maximum-Flux-Residual          L2-NORM 
          0                 1           2             5    8     1       0.1695433098E+00       5    8    1         0.9258240207E+01      0.1176240601E+02
          0                 2           2             5    8     1       0.6630122515E-01       5    8    1         0.3669292508E+01      0.3740323335E+01
          0                 3           2             5    8     1       0.2592743034E-01       5    8    1         0.1430236444E+01      0.1431194563E+01
          0                 4           2             5    8     1       0.1013908423E-01       5    8    1         0.5595907681E+00      0.5595935886E+00
          0                 5           1             5    8     1       0.3964955173E-02       5    8    1         0.2188207540E+00      0.2188220175E+00
          0                 6           1             5    8     1       0.1550522105E-02       5    8    1         0.8557178520E-01      0.8557221242E-01
          0                 7           1             5    8     1       0.6063420566E-03       5    8    1         0.3346341308E-01      0.3346358248E-01
          0                 8           1             5    8     1       0.2371141339E-03       5    8    1         0.1308609431E-01      0.1308616044E-01
          0                 9           1             5    8     1       0.9272507659E-04       5    8    1         0.5117405449E-02      0.5117431310E-02

    ------------------------------------------------
       NWT REQUIRED            9 OUTER ITERATIONS 
       AND A TOTAL OF         13 INNER ITERATIONS.
    ------------------------------------------------

 NO OUTPUT CONTROL FOR STRESS PERIOD   46   TIME STEP    4
 
 SOLVING FOR HEAD 
                                                   Max.-Head-Change                         Max.-Flux-Residual
  Residual-Control   Outer-Iter.   Inner-Iter.     Column Row Layer    Maximum-Head-Change  Column Row Layer    Maximum-Flux-Residual          L2-NORM 
          0                 1           2             5    8     1       0.1536073879E+00       5    8    1         0.8369319232E+01      0.1105140434E+02
          0                 2           2             5    8     1       0.6006712860E-01       5    8    1         0.3326283837E+01      0.3403671559E+01
          0                 3           2             5    8     1       0.2354335693E-01       5    8    1         0.1297459232E+01      0.1298501424E+01
          0                 4           2             5    8     1       0.9217466549E-02       5    8    1         0.5082731498E+00      0.5082753073E+00
          0                 5           1             5    8     1       0.3608736328E-02       5    8    1         0.1989830448E+00      0.1989840434E+00
          0                 6           1             5    8     1       0.1412859259E-02       5    8    1         0.7790448199E-01      0.7790479787E-01
          0                 7           1             5    8     1       0.5531497468E-03       5    8    1         0.3050045000E-01      0.3050057656E-01
          0                 8           1             5    8     1       0.2165641473E-03       5    8    1         0.1194125944E-01      0.1194130886E-01
          0                 9           1             5    8     1       0.8478722313E-04       5    8    1         0.4675133503E-02      0.4675153161E-02

    ------------------------------------------------
       NWT REQUIRED            9 OUTER ITERATIONS 
       AND A TOTAL OF         13 INNER ITERATIONS.
    ------------------------------------------------

 NO OUTPUT CONTROL FOR STRESS PERIOD   46   TIME STEP    5
 
 SOLVING FOR HEAD 
                                                   Max.-Head-Change                         Max.-Flux-Residual
  Residual-Control   Outer-Iter.   Inner-Iter.     Column Row Layer    Maximum-Head-Change  Column Row Layer    Maximum-Flux-Residual          L2-NORM 
          0                 1           2             4    8     1       0.2347653626E+00       4    8    1         0.1263021776E+02      0.1596443462E+02
          0                 2           2             4    8     1       0.9126553721E-01       4    8    1         0.4921584428E+01      0.5796559188E+01
          0                 3           2             4    8     1       0.3944063068E-01       4    8    1         0.2121811927E+01      0.2518212799E+01
          0                 4           2             4    8     1       0.1639161721E-01       4    8    1         0.8811064870E+00      0.1040258028E+01
          0                 5           2             4    8     1       0.6827117850E-02       4    8    1         0.3668602516E+00      0.4353966334E+00
          0                 6           2             4    8     1       0.2307806966E-02       4    8    1         0.1244957692E+00      0.1511214244E+00
          0                 7           2             4    8     1       0.1208830736E-02       4    8    1         0.6476405713E-01      0.8337492256E-01
          0                 8           2             4    8     1       0.6639049773E-03       4    8    1         0.3550755502E-01      0.4830217941E-01
          0                 9           2             4    6     1      -0.2582012659E-03       5    6    1        -0.1568510171E-01      0.3219501828E-01
          0                10           2             4    8     1       0.1645906799E-03       5    6    1         0.9250673746E-02      0.2220975564E-01
          0                11           1             4    6     1      -0.4907633718E-04       5    6    1        -0.3148096775E-02      0.7302065873E-02

    ------------------------------------------------
       NWT REQUIRED           11 OUTER ITERATIONS 
       AND A TOTAL OF         21 INNER ITERATIONS.
    ------------------------------------------------

 NO OUTPUT CONTROL FOR STRESS PERIOD   46   TIME STEP    6
 
 SOLVING FOR HEAD 
                                                   Max.-Head-Change                         Max.-Flux-Residual
  Residual-Control   Outer-Iter.   Inner-Iter.     Column Row Layer    Maximum-Head-Change  Column Row Layer    Maximum-Flux-Residual          L2-NORM 
          0                 1           2             5    7     1       0.2408955318E+00       5    7    1         0.1311979434E+02      0.2007614818E+02
          0                 2           2             5    7     1       0.6620985142E-01       5    7    1         0.3687613977E+01      0.6143496820E+01
          0                 3           2             5    7     1       0.3983158260E-01       5    7    1         0.2151397424E+01      0.3627675441E+01
          0                 4           2             4    8     1       0.1610705049E-01       4    8    1         0.8657625286E+00      0.1345948936E+01
          0                 5           2             4    8     1       0.6516099567E-02       4    8    1         0.3499809764E+00      0.5410478653E+00
          0                 6           2             4    8     1       0.2636767608E-02       4    8    1         0.1415906949E+00      0.2179635695E+00
          0                 7           2             4    8     1       0.1067235663E-02       4    8    1         0.5729824558E-01      0.8784994425E-01
          0                 8           2             4    8     1       0.4320614261E-03       4    8    1         0.2319266608E-01      0.3542316792E-01
          0                 9           2             4    8     1       0.1749524927E-03       4    8    1         0.9389775152E-02      0.1428913414E-01
          0                10           1             4    8     1       0.7085612743E-04       4    8    1         0.3802311872E-02      0.5766103805E-02

    ------------------------------------------------
       NWT REQUIRED           10 OUTER ITERATIONS 
       AND A TOTAL OF         19 INNER ITERATIONS.
    ------------------------------------------------

 NO OUTPUT CONTROL FOR STRESS PERIOD   46   TIME STEP    7
 
 SOLVING FOR HEAD 
                                                   Max.-Head-Change                         Max.-Flux-Residual
  Residual-Control   Outer-Iter.   Inner-Iter.     Column Row Layer    Maximum-Head-Change  Column Row Layer    Maximum-Flux-Residual          L2-NORM 
          0                 1           2             5    7     1       0.2232927465E+00       5    7    1         0.1213296134E+02      0.1904378842E+02
          0                 2           2             4    8     1       0.7095992745E-01       5    7    1         0.3915290498E+01      0.6213613479E+01
          0                 3           2             4    8     1       0.2941447507E-01       4    8    1         0.1580729649E+01      0.2410380172E+01
          0                 4           2             4    8     1       0.1188179834E-01       4    8    1         0.6390205574E+00      0.9667639681E+00
          0                 5           2             4    8     1       0.4801128715E-02       4    8    1         0.2581195121E+00      0.3889119910E+00
          0                 6           2             4    8     1       0.1940598409E-02       4    8    1         0.1043072193E+00      0.1565751530E+00
          0                 7           2             4    8     1       0.7846041150E-03       4    8    1         0.4216307134E-01      0.6307015514E-01
          0                 8           2             4    8     1       0.3173072179E-03       4    8    1         0.1704792077E-01      0.2541803669E-01
          0                 9           2             4    8     1       0.1283559640E-03       4    8    1         0.6894827122E-02      0.1024845165E-01
          0                10           1             4    8     1       0.5193397182E-04       4    8    1         0.2789205724E-02      0.4133860440E-02

    ------------------------------------------------
       NWT REQUIRED           10 OUTER ITERATIONS 
       AND A TOTAL OF         19 INNER ITERATIONS.
    ------------------------------------------------

 NO OUTPUT CONTROL FOR STRESS PERIOD   46   TIME STEP    8
 
 SOLVING FOR HEAD 
                                                   Max.-Head-Change                         Max.-Flux-Residual
  Residual-Control   Outer-Iter.   Inner-Iter.     Column Row Layer    Maximum-Head-Change  Column Row Layer    Maximum-Flux-Residual          L2-NORM 
          0                 1           2             5    6     1       0.2248690721E+00       5    6    1         0.1221157395E+02      0.2286188459E+02
          0                 2           2             5    6     1       0.7236424013E-01       5    6    1         0.3950189001E+01      0.7328821129E+01
          0                 3           2             5    6     1       0.2891388449E-01       5    6    1         0.1570074563E+01      0.2948004647E+01
          0                 4           2             5    6     1       0.1153291248E-01       5    6    1         0.6265201910E+00      0.1201879833E+01
          0                 5           2             5    7     1       0.4678151049E-02       5    6    1         0.2499060862E+00      0.4902772151E+00
          0                 6           2             5    7     1       0.1911874310E-02       5    7    1         0.1018654078E+00      0.2001016171E+00
          0                 7           2             5    7     1       0.7813932848E-03       5    7    1         0.4163100296E-01      0.8170633001E-01
          0                 8           2             5    7     1       0.3193782198E-03       5    7    1         0.1701500919E-01      0.3337677228E-01
          0                 9           2             5    7     1       0.1305468133E-03       5    7    1         0.6954610192E-02      0.1363964949E-01
          0                10           1             5    7     1       0.5336461949E-04       5    7    1         0.2842750632E-02      0.5575963424E-02

    ------------------------------------------------
       NWT REQUIRED           10 OUTER ITERATIONS 
       AND A TOTAL OF         19 INNER ITERATIONS.
    ------------------------------------------------

 NO OUTPUT CONTROL FOR STRESS PERIOD   46   TIME STEP    9
 
 SOLVING FOR HEAD 
                                                   Max.-Head-Change                         Max.-Flux-Residual
  Residual-Control   Outer-Iter.   Inner-Iter.     Column Row Layer    Maximum-Head-Change  Column Row Layer    Maximum-Flux-Residual          L2-NORM 
          0                 1           2             4    7     1       0.2418375597E+00       4    7    1         0.1282335842E+02      0.2431359953E+02
          0                 2           2             4    7     1       0.8119608824E-01       4    7    1         0.4337352873E+01      0.7915320096E+01
          0                 3           2             4    6     1      -0.1817994919E+01       4    6    1        -0.9897672346E+02      0.2397919155E+03
          0                 4           2             4    7     1      -0.2090320140E+00       4    7    1        -0.1150712575E+02      0.2329474588E+02
          0                 5           2             4    7     1       0.1423702585E-01       4    7    1         0.8029946046E+00      0.1581657417E+01
          0                 6           2             4    7     1      -0.5666383993E-03       4    7    1        -0.3274455095E-01      0.6362918683E-01
          0                 7           1             4    7     1       0.6992081787E-05       4    7    1         0.4139815028E-03      0.8047125075E-03

    ------------------------------------------------
       NWT REQUIRED            7 OUTER ITERATIONS 
       AND A TOTAL OF         13 INNER ITERATIONS.
    ------------------------------------------------

 NO OUTPUT CONTROL FOR STRESS PERIOD   46   TIME STEP   10
 
 SOLVING FOR HEAD 
                                                   Max.-Head-Change                         Max.-Flux-Residual
  Residual-Control   Outer-Iter.   Inner-Iter.     Column Row Layer    Maximum-Head-Change  Column Row Layer    Maximum-Flux-Residual          L2-NORM 
          0                 1           2             5    6     1       0.9223781539E-01       5    6    1         0.5026829739E+01      0.9484054126E+01
          0                 2           2             5    6     1      -0.8972169759E-02       5    6    1        -0.5026792750E+00      0.9483789564E+00
          0                 3           2             5    6     1       0.6109720333E-03       5    6    1         0.3518759954E-01      0.6638588194E-01
          0                 4           1             5    6     1      -0.2431112385E-04       5    6    1        -0.1439174673E-02      0.2715141720E-02

    ------------------------------------------------
       NWT REQUIRED            4 OUTER ITERATIONS 
       AND A TOTAL OF          7 INNER ITERATIONS.
    ------------------------------------------------

 NO OUTPUT CONTROL FOR STRESS PERIOD   46   TIME STEP   11
 
 SOLVING FOR HEAD 
                                                   Max.-Head-Change                         Max.-Flux-Residual
  Residual-Control   Outer-Iter.   Inner-Iter.     Column Row Layer    Maximum-Head-Change  Column Row Layer    Maximum-Flux-Residual          L2-NORM 
          0                 1           2             5    6     1       0.8803270191E-01       5    6    1         0.4793672937E+01      0.9156082862E+01
          0                 2           2             5    6     1      -0.8563131455E-02       5    6    1        -0.4793639047E+00      0.9155849698E+00
          0                 3           2             5    6     1       0.5831179961E-03       5    6    1         0.3355551998E-01      0.6409038162E-01
          0                 4           1             5    6     1      -0.2320278572E-04       5    6    1        -0.1372422518E-02      0.2621258109E-02

    ------------------------------------------------
       NWT REQUIRED            4 OUTER ITERATIONS 
       AND A TOTAL OF          7 INNER ITERATIONS.
    ------------------------------------------------

 NO OUTPUT CONTROL FOR STRESS PERIOD   46   TIME STEP   12
 
 SOLVING FOR HEAD 
                                                   Max.-Head-Change                         Max.-Flux-Residual
  Residual-Control   Outer-Iter.   Inner-Iter.     Column Row Layer    Maximum-Head-Change  Column Row Layer    Maximum-Flux-Residual          L2-NORM 
          0                 1           2             5    6     1       0.8408873822E-01       5    6    1         0.4575128599E+01      0.8847135035E+01
          0                 2           2             5    6     1      -0.8179495491E-02       5    6    1        -0.4575097529E+00      0.8846929963E+00
          0                 3           2             5    6     1       0.5569937689E-03       5    6    1         0.3202572603E-01      0.6192800601E-01
          0                 4           1             5    6     1      -0.2216327882E-04       5    6    1        -0.1309853889E-02      0.2532821759E-02

    ------------------------------------------------
       NWT REQUIRED            4 OUTER ITERATIONS 
       AND A TOTAL OF          7 INNER ITERATIONS.
    ------------------------------------------------

 NO OUTPUT CONTROL FOR STRESS PERIOD   46   TIME STEP   13
 
 SOLVING FOR HEAD 
                                                   Max.-Head-Change                         Max.-Flux-Residual
  Residual-Control   Outer-Iter.   Inner-Iter.     Column Row Layer    Maximum-Head-Change  Column Row Layer    Maximum-Flux-Residual          L2-NORM 
          0                 1           2             5    6     1       0.2504126050E+00       5    6    1         0.1366546795E+02      0.2121299784E+02
          0                 2           2             5    6     1       0.9479227746E-01       5    6    1         0.5187484677E+01      0.7876044551E+01
          0                 3           2             5    6     1       0.4162333441E-01       5    6    1         0.2268760361E+01      0.3628701697E+01
          0                 4           2             4    6     1      -0.1172790341E-01       4    6    1        -0.6990787056E+00      0.9013028637E+00
          0                 5           2             5    6     1       0.1373879591E-01       5    6    1         0.7373733212E+00      0.1563927447E+01
          0                 6           2             4    7     1      -0.1944364000E+00       4    6    1        -0.1070458557E+02      0.2570038314E+02
          0                 7           2             5    7     1      -0.8353100453E-01       5    7    1        -0.4825373328E+01      0.9733489143E+01
          0                 8           2             5    7     1      -0.3784743857E-01       5    7    1        -0.2210879311E+01      0.4095688436E+01
          0                 9           2             5    7     1      -0.1711312367E-01       5    7    1        -0.1001150082E+01      0.1803407744E+01
          0                10           2             4    8     1      -0.7731229652E-02       5    7    1        -0.4525516811E+00      0.7959510812E+00
                                                   Max.-Head-Change                         Max.-Flux-Residual
  Residual-Control   Outer-Iter.   Inner-Iter.     Column Row Layer    Maximum-Head-Change  Column Row Layer    Maximum-Flux-Residual          L2-NORM 
          0                11           2             4    8     1      -0.3495355356E-02       5    7    1        -0.2042007932E+00      0.3519683893E+00
          0                12           2             4    8     1      -0.1579456664E-02       4    8    1        -0.9224956714E-01      0.1558964570E+00
          0                13           2             4    8     1      -0.7133744344E-03       4    8    1        -0.4168136686E-01      0.6914855029E-01
          0                14           2             4    8     1      -0.3220613259E-03       4    8    1        -0.1882416134E-01      0.3070822857E-01
          0                15           2             4    8     1      -0.1453405378E-03       4    8    1        -0.8497728995E-02      0.1365127274E-01
          0                16           1             4    8     1      -0.6556565012E-04       4    8    1        -0.3834593861E-02      0.6073940849E-02

    ------------------------------------------------
       NWT REQUIRED           16 OUTER ITERATIONS 
       AND A TOTAL OF         31 INNER ITERATIONS.
    ------------------------------------------------

 NO OUTPUT CONTROL FOR STRESS PERIOD   46   TIME STEP   14
 
 SOLVING FOR HEAD 
                                                   Max.-Head-Change                         Max.-Flux-Residual
  Residual-Control   Outer-Iter.   Inner-Iter.     Column Row Layer    Maximum-Head-Change  Column Row Layer    Maximum-Flux-Residual          L2-NORM 
          0                 1           2             5    6     1       0.2474187993E+00       5    6    1         0.1341883814E+02      0.2695467455E+02
          0                 2           2             4    7     1       0.1001283315E+00       5    6    1         0.5363915291E+01      0.1078429307E+02
          0                 3           2             4    7     1       0.4118899180E-01       4    7    1         0.2182646739E+01      0.4398831368E+01
          0                 4           2             4    7     1       0.1694309973E-01       4    7    1         0.8980096597E+00      0.1797853700E+01
          0                 5           2             4    7     1       0.6969317669E-02       4    7    1         0.3693890468E+00      0.7350783498E+00
          0                 6           2             4    7     1       0.2866629489E-02       4    7    1         0.1519425834E+00      0.3006431259E+00
          0                 7           2             4    7     1       0.1179058426E-02       4    7    1         0.6249682016E-01      0.1229981781E+00
          0                 8           2             4    7     1       0.4849314647E-03       4    7    1         0.2570505427E-01      0.5033437589E-01
          0                 9           2             4    7     1       0.1994369994E-03       4    7    1         0.1057207319E-01      0.2060344894E-01
          0                10           1             4    7     1       0.8201828641E-04       4    7    1         0.4347923874E-02      0.8435591960E-02

    ------------------------------------------------
       NWT REQUIRED           10 OUTER ITERATIONS 
       AND A TOTAL OF         19 INNER ITERATIONS.
    ------------------------------------------------

 NO OUTPUT CONTROL FOR STRESS PERIOD   46   TIME STEP   15
 
 SOLVING FOR HEAD 
                                                   Max.-Head-Change                         Max.-Flux-Residual
  Residual-Control   Outer-Iter.   Inner-Iter.     Column Row Layer    Maximum-Head-Change  Column Row Layer    Maximum-Flux-Residual          L2-NORM 
          0                 1           2             4    7     1       0.2356333686E+00       4    7    1         0.1242570753E+02      0.2685932817E+02
          0                 2           2             4    7     1       0.9693378898E-01       4    7    1         0.5143832996E+01      0.1076175118E+02
          0                 3           2             4    7     1       0.3988084353E-01       4    7    1         0.2112967167E+01      0.4393358963E+01
          0                 4           2             4    7     1       0.1640938709E-01       4    7    1         0.8695228449E+00      0.1797391803E+01
          0                 5           2             4    7     1       0.6752288894E-02       4    7    1         0.3577737924E+00      0.7355536121E+00
          0                 6           2             4    7     1       0.2778642561E-02       4    7    1         0.1472224241E+00      0.3010942047E+00
          0                 7           2             4    7     1       0.1143485441E-02       4    7    1         0.6058430470E-01      0.1232810811E+00
          0                 8           2             4    7     1       0.4705859335E-03       4    7    1         0.2493224147E-01      0.5048778702E-01
          0                 9           2             4    7     1       0.1936655419E-03       4    7    1         0.1026057528E-01      0.2068061638E-01
          0                10           1             4    7     1       0.7970146267E-04       4    7    1         0.4222660803E-02      0.8472664188E-02

    ------------------------------------------------
       NWT REQUIRED           10 OUTER ITERATIONS 
       AND A TOTAL OF         19 INNER ITERATIONS.
    ------------------------------------------------

 NO OUTPUT CONTROL FOR STRESS PERIOD   46   TIME STEP   16
 
 SOLVING FOR HEAD 
                                                   Max.-Head-Change                         Max.-Flux-Residual
  Residual-Control   Outer-Iter.   Inner-Iter.     Column Row Layer    Maximum-Head-Change  Column Row Layer    Maximum-Flux-Residual          L2-NORM 
          0                 1           2             4    7     1       0.2290203975E+00       4    7    1         0.1203000539E+02      0.2651050409E+02
          0                 2           2             4    7     1       0.9529064559E-01       4    7    1         0.5004173998E+01      0.1086934152E+02
          0                 3           2             4    7     1       0.3964048311E-01       4    7    1         0.2082252537E+01      0.4479470973E+01
          0                 4           2             4    7     1       0.1648685594E-01       4    7    1         0.8661618243E+00      0.1846268712E+01
          0                 5           2             4    7     1       0.6855597592E-02       4    7    1         0.3602316519E+00      0.7611389188E+00
          0                 6           2             4    7     1       0.2850102457E-02       4    7    1         0.1497860950E+00      0.3138326351E+00
          0                 7           2             4    7     1       0.1184630840E-02       4    7    1         0.6226855819E-01      0.1294180648E+00
          0                 8           2             4    7     1       0.4922811947E-03       4    7    1         0.2588054557E-01      0.5337618058E-01
          0                 9           2             4    7     1       0.2045275320E-03       4    7    1         0.1075438920E-01      0.2201661560E-01
          0                10           1             4    7     1       0.8495709655E-04       4    7    1         0.4467931718E-02      0.9082370314E-02

    ------------------------------------------------
       NWT REQUIRED           10 OUTER ITERATIONS 
       AND A TOTAL OF         19 INNER ITERATIONS.
    ------------------------------------------------

 NO OUTPUT CONTROL FOR STRESS PERIOD   46   TIME STEP   17
 
 SOLVING FOR HEAD 
                                                   Max.-Head-Change                         Max.-Flux-Residual
  Residual-Control   Outer-Iter.   Inner-Iter.     Column Row Layer    Maximum-Head-Change  Column Row Layer    Maximum-Flux-Residual          L2-NORM 
          0                 1           2             4    6     1       0.2771296337E+00       4    6    1         0.1479549631E+02      0.2838245315E+02
          0                 2           2             4    6     1       0.1128806663E+00       4    6    1         0.6012886234E+01      0.1161954939E+02
          0                 3           2             4    6     1       0.4107835223E-01       4    6    1         0.2190069619E+01      0.4141606038E+01
          0                 4           2             4    6     1       0.2188108564E-01       4    6    1         0.1164238040E+01      0.2361851950E+01
          0                 5           2             4    7     1      -0.1128681557E+00       5    8    1        -0.6157844399E+01      0.1492049455E+02
          0                 6           2             4    7     1      -0.3787466544E-01       4    7    1        -0.2033821956E+01      0.4912791835E+01
          0                 7           2             4    7     1      -0.1645625858E-01       4    7    1        -0.8841409944E+00      0.2103140861E+01
          0                 8           2             4    7     1      -0.7145825701E-02       4    7    1        -0.3841114466E+00      0.9004857124E+00
          0                 9           2             4    7     1      -0.3101169128E-02       4    7    1        -0.1667761388E+00      0.3856111292E+00
          0                10           2             4    7     1      -0.1345123670E-02       4    7    1        -0.7237091238E-01      0.1651507643E+00
                                                   Max.-Head-Change                         Max.-Flux-Residual
  Residual-Control   Outer-Iter.   Inner-Iter.     Column Row Layer    Maximum-Head-Change  Column Row Layer    Maximum-Flux-Residual          L2-NORM 
          0                11           2             4    7     1      -0.5831416622E-03       4    7    1        -0.3138770479E-01      0.7073993618E-01
          0                12           2             4    7     1      -0.2526805242E-03       4    7    1        -0.1360603917E-01      0.3030379115E-01
          0                13           1             4    7     1      -0.1094373303E-03       4    7    1        -0.5895100109E-02      0.1298294071E-01
          0                14           1             4    7     1      -0.4737670547E-04       4    7    1        -0.2552983828E-02      0.5562742279E-02

    ------------------------------------------------
       NWT REQUIRED           14 OUTER ITERATIONS 
       AND A TOTAL OF         26 INNER ITERATIONS.
    ------------------------------------------------

 NO OUTPUT CONTROL FOR STRESS PERIOD   46   TIME STEP   18
 
 SOLVING FOR HEAD 
                                                   Max.-Head-Change                         Max.-Flux-Residual
  Residual-Control   Outer-Iter.   Inner-Iter.     Column Row Layer    Maximum-Head-Change  Column Row Layer    Maximum-Flux-Residual          L2-NORM 
          0                 1           2             4    6     1       0.2678331587E+00       4    6    1         0.1428690547E+02      0.2786782733E+02
          0                 2           2             4    6     1       0.1095127106E+00       4    6    1         0.5830428514E+01      0.1146286441E+02
          0                 3           2             4    6     1       0.4479584844E-01       4    6    1         0.2385009594E+01      0.4725734042E+01
          0                 4           2             4    6     1       0.1833065526E-01       4    6    1         0.9756003901E+00      0.1948468729E+01
          0                 5           2             4    6     1       0.7503752040E-02       4    6    1         0.3992541928E+00      0.8035046953E+00
          0                 6           2             4    6     1       0.3072790048E-02       4    6    1         0.1634483504E+00      0.3313882885E+00
          0                 7           2             4    6     1       0.1258737364E-02       4    6    1         0.6693682465E-01      0.1366899800E+00
          0                 8           2             4    6     1       0.5157975653E-03       4    6    1         0.2742180980E-01      0.5638743332E-01
          0                 9           2             4    6     1       0.2114266274E-03       4    6    1         0.1123745351E-01      0.2326323741E-01
          0                10           1             4    7     1       0.8743740537E-04       4    6    1         0.4606539578E-02      0.9598348246E-02

    ------------------------------------------------
       NWT REQUIRED           10 OUTER ITERATIONS 
       AND A TOTAL OF         19 INNER ITERATIONS.
    ------------------------------------------------

 NO OUTPUT CONTROL FOR STRESS PERIOD   46   TIME STEP   19
 
 SOLVING FOR HEAD 
                                                   Max.-Head-Change                         Max.-Flux-Residual
  Residual-Control   Outer-Iter.   Inner-Iter.     Column Row Layer    Maximum-Head-Change  Column Row Layer    Maximum-Flux-Residual          L2-NORM 
          0                 1           2             4    6     1       0.2555380273E+00       4    6    1         0.1361833352E+02      0.2691011496E+02
          0                 2           2             4    6     1       0.1045481237E+00       4    6    1         0.5564051643E+01      0.1108024468E+02
          0                 3           2             4    6     1       0.4278981669E-01       4    6    1         0.2277114624E+01      0.4568463727E+01
          0                 4           2             4    6     1       0.1751950988E-01       4    6    1         0.9320193840E+00      0.1884035465E+01
          0                 5           2             4    6     1       0.7175537259E-02       4    6    1         0.3816280142E+00      0.7770650312E+00
          0                 6           2             4    6     1       0.2939894786E-02       4    6    1         0.1563153834E+00      0.3205350509E+00
          0                 7           2             4    6     1       0.1204892272E-02       4    6    1         0.6404827086E-01      0.1322322708E+00
          0                 8           2             4    7     1       0.4943177598E-03       4    6    1         0.2625130510E-01      0.5455566823E-01
          0                 9           2             4    7     1       0.2059468151E-03       4    7    1         0.1080524748E-01      0.2251019000E-01
          0                10           1             4    7     1       0.8576045547E-04       4    7    1         0.4501313173E-02      0.9288640268E-02

    ------------------------------------------------
       NWT REQUIRED           10 OUTER ITERATIONS 
       AND A TOTAL OF         19 INNER ITERATIONS.
    ------------------------------------------------

 NO OUTPUT CONTROL FOR STRESS PERIOD   46   TIME STEP   20
 
 SOLVING FOR HEAD 
                                                   Max.-Head-Change                         Max.-Flux-Residual
  Residual-Control   Outer-Iter.   Inner-Iter.     Column Row Layer    Maximum-Head-Change  Column Row Layer    Maximum-Flux-Residual          L2-NORM 
          0                 1           2             4    6     1       0.2441298360E+00       4    6    1         0.1299848654E+02      0.2602462014E+02
          0                 2           2             4    6     1       0.9993733712E-01       4    6    1         0.5316840358E+01      0.1071865768E+02
          0                 3           2             4    6     1       0.4092502466E-01       4    6    1         0.2176890484E+01      0.4419512174E+01
          0                 4           2             4    6     1       0.1676478938E-01       4    6    1         0.8914994403E+00      0.1822818742E+01
          0                 5           2             4    6     1       0.6869878731E-02       4    6    1         0.3652249939E+00      0.7518469600E+00
          0                 6           2             4    6     1       0.2816022183E-02       4    6    1         0.1496714404E+00      0.3101416855E+00
          0                 7           2             4    7     1       0.1164539195E-02       4    6    1         0.6135535490E-01      0.1279465815E+00
          0                 8           2             4    7     1       0.4850477369E-03       4    7    1         0.2545417165E-01      0.5278767138E-01
          0                 9           2             4    7     1       0.2019306360E-03       4    7    1         0.1060097613E-01      0.2178052552E-01
          0                10           1             4    7     1       0.8402745906E-04       4    7    1         0.4412888624E-02      0.8987388104E-02

    ------------------------------------------------
       NWT REQUIRED           10 OUTER ITERATIONS 
       AND A TOTAL OF         19 INNER ITERATIONS.
    ------------------------------------------------

 NO OUTPUT CONTROL FOR STRESS PERIOD   46   TIME STEP   21
 
 SOLVING FOR HEAD 
                                                   Max.-Head-Change                         Max.-Flux-Residual
  Residual-Control   Outer-Iter.   Inner-Iter.     Column Row Layer    Maximum-Head-Change  Column Row Layer    Maximum-Flux-Residual          L2-NORM 
          0                 1           2             4    6     1       0.2335292910E+00       4    6    1         0.1242298613E+02      0.2520405692E+02
          0                 2           2             4    6     1       0.8636502930E-01       4    6    1         0.4595654038E+01      0.9185079404E+01
          0                 3           2             4    6     1       0.4396440646E-01       4    6    1         0.2336472210E+01      0.4890961629E+01
          0                 4           2             4    6     1       0.1844034341E-01       4    6    1         0.9796992079E+00      0.2070184306E+01
          0                 5           2             4    7     1       0.6769100430E-02       4    6    1         0.3585194334E+00      0.7488671405E+00
          0                 6           2             4    8     1      -0.3449333914E-01       5    8    1        -0.1896073012E+01      0.4578917245E+01
          0                 7           2             4    7     1      -0.8936159044E-02       5    7    1        -0.4802348455E+00      0.1166457335E+01
          0                 8           2             4    7     1      -0.3883688665E-02       4    7    1        -0.2086130235E+00      0.4992551631E+00
          0                 9           2             4    7     1      -0.1686802946E-02       4    7    1        -0.9065392602E-01      0.2137190574E+00
          0                10           2             4    7     1      -0.7321911798E-03       4    7    1        -0.3936953057E-01      0.9150180104E-01
                                                   Max.-Head-Change                         Max.-Flux-Residual
  Residual-Control   Outer-Iter.   Inner-Iter.     Column Row Layer    Maximum-Head-Change  Column Row Layer    Maximum-Flux-Residual          L2-NORM 
          0                11           2             4    7     1      -0.3176419177E-03       4    7    1        -0.1708739779E-01      0.3918101180E-01
          0                12           2             4    7     1      -0.1377261900E-03       4    7    1        -0.7412190359E-02      0.1677938103E-01
          0                13           1             4    7     1      -0.5968596230E-04       4    7    1        -0.3213544129E-02      0.7186635445E-02

    ------------------------------------------------
       NWT REQUIRED           13 OUTER ITERATIONS 
       AND A TOTAL OF         25 INNER ITERATIONS.
    ------------------------------------------------

 NO OUTPUT CONTROL FOR STRESS PERIOD   46   TIME STEP   22
 
 SOLVING FOR HEAD 
                                                   Max.-Head-Change                         Max.-Flux-Residual
  Residual-Control   Outer-Iter.   Inner-Iter.     Column Row Layer    Maximum-Head-Change  Column Row Layer    Maximum-Flux-Residual          L2-NORM 
          0                 1           2             4    6     1       0.2247690938E+00       4    6    1         0.1194723188E+02      0.2456767080E+02
          0                 2           2             4    6     1       0.9210838037E-01       4    6    1         0.4897232379E+01      0.1010482848E+02
          0                 3           2             4    6     1       0.3740366926E-01       4    6    1         0.1988007468E+01      0.4120154071E+01
          0                 4           2             4    6     1       0.8328304328E-02       4    6    1         0.4439983423E+00      0.8159595350E+00
          0                 5           2             4    7     1       0.1056004156E-01       4    6    1         0.5530697238E+00      0.1233937984E+01
          0                 6           2             4    7     1       0.4470198645E-02       4    7    1         0.2341507372E+00      0.5166393207E+00
          0                 7           2             4    7     1       0.1296780834E-02       4    7    1         0.6807052305E-01      0.1412068972E+00
          0                 8           2             4    7     1       0.1160241491E-02       4    7    1         0.6073554386E-01      0.1371406986E+00
          0                 9           2             5    8     1      -0.9075339730E-03       5    8    1        -0.5003987234E-01      0.1187403870E+00
          0                10           2             4    7     1       0.8439690706E-03       4    7    1         0.4658295298E-01      0.1126230931E+00
                                                   Max.-Head-Change                         Max.-Flux-Residual
  Residual-Control   Outer-Iter.   Inner-Iter.     Column Row Layer    Maximum-Head-Change  Column Row Layer    Maximum-Flux-Residual          L2-NORM 
          0                11           2             4    7     1      -0.1000720762E-01       5    8    1        -0.5685885570E+00      0.1393685559E+01
          0                12           2             5    8     1       0.1154970062E-02       5    8    1         0.6918569859E-01      0.1626894287E+00
          0                13           2             5    8     1       0.5399221274E-03       5    8    1         0.3232015626E-01      0.7692668029E-01
          0                14           2             5    6     1       0.2525653215E-03       5    8    1         0.1510789631E-01      0.3638500929E-01
          0                15           2             4    7     1       0.1195110300E-03       5    6    1         0.7066539841E-02      0.1721229309E-01
          0                16           1             4    7     1       0.5732389925E-04       4    7    1         0.3341342953E-02      0.8143597163E-02

    ------------------------------------------------
       NWT REQUIRED           16 OUTER ITERATIONS 
       AND A TOTAL OF         31 INNER ITERATIONS.
    ------------------------------------------------

 NO OUTPUT CONTROL FOR STRESS PERIOD   46   TIME STEP   23
 
 SOLVING FOR HEAD 
                                                   Max.-Head-Change                         Max.-Flux-Residual
  Residual-Control   Outer-Iter.   Inner-Iter.     Column Row Layer    Maximum-Head-Change  Column Row Layer    Maximum-Flux-Residual          L2-NORM 
          0                 1           2             4    6     1       0.2156982616E+00       4    6    1         0.1145551465E+02      0.2386730228E+02
          0                 2           2             4    6     1       0.7098994603E-01       4    6    1         0.3777284107E+01      0.7570357436E+01
          0                 3           2             4    7     1      -0.1816648053E+01       5    8    1        -0.9816864858E+02      0.2396216597E+03
          0                 4           2             4    7     1      -0.1933192924E+00       4    6    1        -0.1050578168E+02      0.2271043505E+02
          0                 5           2             4    7     1       0.1316576398E-01       4    6    1         0.7354872006E+00      0.1589930347E+01
          0                 6           2             4    7     1      -0.5240044151E-03       4    6    1        -0.3008870724E-01      0.6504368999E-01
          0                 7           1             4    7     1       0.6465995205E-05       4    6    1         0.3815995460E-03      0.8249208407E-03

    ------------------------------------------------
       NWT REQUIRED            7 OUTER ITERATIONS 
       AND A TOTAL OF         13 INNER ITERATIONS.
    ------------------------------------------------

 NO OUTPUT CONTROL FOR STRESS PERIOD   46   TIME STEP   24
 
 SOLVING FOR HEAD 
                                                   Max.-Head-Change                         Max.-Flux-Residual
  Residual-Control   Outer-Iter.   Inner-Iter.     Column Row Layer    Maximum-Head-Change  Column Row Layer    Maximum-Flux-Residual          L2-NORM 
          0                 1           2             4    6     1       0.6804669129E-01       4    6    1         0.3664689143E+01      0.5358194103E+01
          0                 2           2             4    6     1      -0.6619161060E-02       4    6    1        -0.3664740001E+00      0.5358116089E+00
          0                 3           2             4    6     1       0.4507396123E-03       4    6    1         0.2565314307E-01      0.3750610277E-01
          0                 4           1             4    6     1      -0.1793535953E-04       4    6    1        -0.1049215240E-02      0.1533955340E-02

    ------------------------------------------------
       NWT REQUIRED            4 OUTER ITERATIONS 
       AND A TOTAL OF          7 INNER ITERATIONS.
    ------------------------------------------------

 NO OUTPUT CONTROL FOR STRESS PERIOD   46   TIME STEP   25
 
 SOLVING FOR HEAD 
                                                   Max.-Head-Change                         Max.-Flux-Residual
  Residual-Control   Outer-Iter.   Inner-Iter.     Column Row Layer    Maximum-Head-Change  Column Row Layer    Maximum-Flux-Residual          L2-NORM 
          0                 1           2             4    6     1       0.6568223320E-01       4    6    1         0.3535553540E+01      0.5205230673E+01
          0                 2           2             4    6     1      -0.6389158836E-02       4    6    1        -0.3535600970E+00      0.5205163313E+00
          0                 3           2             4    6     1       0.4350773618E-03       4    6    1         0.2474917271E-01      0.3643552884E-01
          0                 4           1             4    6     1      -0.1731214355E-04       4    6    1        -0.1012242789E-02      0.1490165083E-02

    ------------------------------------------------
       NWT REQUIRED            4 OUTER ITERATIONS 
       AND A TOTAL OF          7 INNER ITERATIONS.
    ------------------------------------------------

 NO OUTPUT CONTROL FOR STRESS PERIOD   46   TIME STEP   26
 
 SOLVING FOR HEAD 
                                                   Max.-Head-Change                         Max.-Flux-Residual
  Residual-Control   Outer-Iter.   Inner-Iter.     Column Row Layer    Maximum-Head-Change  Column Row Layer    Maximum-Flux-Residual          L2-NORM 
          0                 1           2             4    6     1       0.6343215229E-01       4    6    1         0.3412711479E+01      0.5060576229E+01
          0                 2           2             4    6     1      -0.6170282781E-02       4    6    1        -0.3412755752E+00      0.5060518547E+00
          0                 3           2             4    6     1       0.4201727582E-03       4    6    1         0.2388925879E-01      0.3542307567E-01
          0                 4           1             4    6     1      -0.1671907535E-04       4    6    1        -0.9770722454E-03      0.1448762483E-02

    ------------------------------------------------
       NWT REQUIRED            4 OUTER ITERATIONS 
       AND A TOTAL OF          7 INNER ITERATIONS.
    ------------------------------------------------

 NO OUTPUT CONTROL FOR STRESS PERIOD   46   TIME STEP   27
 
 SOLVING FOR HEAD 
                                                   Max.-Head-Change                         Max.-Flux-Residual
  Residual-Control   Outer-Iter.   Inner-Iter.     Column Row Layer    Maximum-Head-Change  Column Row Layer    Maximum-Flux-Residual          L2-NORM 
          0                 1           2             4    6     1       0.1915853323E+00       4    6    1         0.1027826596E+02      0.1500497223E+02
          0                 2           2             4    6     1       0.7327886766E-01       4    6    1         0.3927678853E+01      0.5594369325E+01
          0                 3           2             4    6     1       0.3391281128E-01       4    6    1         0.1814766397E+01      0.2803730216E+01
          0                 4           2             5    8     1      -0.6940290365E-02       5    8    1        -0.3843149565E+00      0.6704008476E+00
          0                 5           2             4    6     1       0.1274113467E-01       4    6    1         0.6775769745E+00      0.1374799966E+01
          0                 6           2             4    6     1       0.4921144024E-02       4    6    1         0.2611426417E+00      0.5620491884E+00
          0                 7           2             4    6     1       0.1706582686E-02       4    7    1         0.9324218760E-01      0.2054448343E+00
          0                 8           2             4    7     1       0.4209406389E-03       4    7    1         0.2346106948E-01      0.4522306396E-01
          0                 9           2             4    6     1      -0.4054756906E-02       5    8    1        -0.2226520878E+00      0.5399295037E+00
          0                10           2             4    7     1      -0.2116594680E-02       4    8    1        -0.1201634669E+00      0.2901805486E+00
                                                   Max.-Head-Change                         Max.-Flux-Residual
  Residual-Control   Outer-Iter.   Inner-Iter.     Column Row Layer    Maximum-Head-Change  Column Row Layer    Maximum-Flux-Residual          L2-NORM 
          0                11           2             4    6     1      -0.1313008992E-01       4    7    1        -0.7221716110E+00      0.1763583656E+01
          0                12           2             4    7     1      -0.5925207341E-02       4    7    1        -0.3365316507E+00      0.8001694239E+00
          0                13           2             4    7     1      -0.2752948185E-02       4    7    1        -0.1565602659E+00      0.3635510974E+00
          0                14           2             4    7     1      -0.1277380868E-02       4    7    1        -0.7272718965E-01      0.1653662122E+00
          0                15           2             4    7     1      -0.5920215705E-03       4    7    1        -0.3374025004E-01      0.7529143275E-01
          0                16           2             4    7     1      -0.2740986972E-03       4    7    1        -0.1563513846E-01      0.3430788240E-01
          0                17           2             4    7     1      -0.1267880976E-03       4    7    1        -0.7237918725E-02      0.1564353065E-01
          0                18           1             4    7     1      -0.5859967987E-04       4    7    1        -0.3347596805E-02      0.7137077488E-02

    ------------------------------------------------
       NWT REQUIRED           18 OUTER ITERATIONS 
       AND A TOTAL OF         35 INNER ITERATIONS.
    ------------------------------------------------

 NO OUTPUT CONTROL FOR STRESS PERIOD   46   TIME STEP   28
 
 SOLVING FOR HEAD 
                                                   Max.-Head-Change                         Max.-Flux-Residual
  Residual-Control   Outer-Iter.   Inner-Iter.     Column Row Layer    Maximum-Head-Change  Column Row Layer    Maximum-Flux-Residual          L2-NORM 
          0                 1           2             4    6     1       0.2318129171E+00       4    6    1         0.1230560566E+02      0.2743725571E+02
          0                 2           2             4    6     1       0.7780606095E-01       4    6    1         0.4129046893E+01      0.9036254329E+01
          0                 3           2             4    7     1      -0.1816031462E+01       5    8    1        -0.9772249836E+02      0.2389744461E+03
          0                 4           2             4    6     1      -0.2043153706E+00       4    6    1        -0.1113705691E+02      0.2534341976E+02
          0                 5           2             4    6     1       0.1391476460E-01       4    6    1         0.7797829653E+00      0.1774441052E+01
          0                 6           2             4    6     1      -0.5538143716E-03       4    6    1        -0.3190478086E-01      0.7260294761E-01
          0                 7           1             4    6     1       0.6833847156E-05       4    6    1         0.4046805323E-03      0.9209638665E-03

    ------------------------------------------------
       NWT REQUIRED            7 OUTER ITERATIONS 
       AND A TOTAL OF         13 INNER ITERATIONS.
    ------------------------------------------------

 NO OUTPUT CONTROL FOR STRESS PERIOD   46   TIME STEP   29
 
 SOLVING FOR HEAD 
                                                   Max.-Head-Change                         Max.-Flux-Residual
  Residual-Control   Outer-Iter.   Inner-Iter.     Column Row Layer    Maximum-Head-Change  Column Row Layer    Maximum-Flux-Residual          L2-NORM 
          0                 1           2             4    6     1       0.8392455303E-01       4    6    1         0.4503150248E+01      0.9753114061E+01
          0                 2           2             4    6     1      -0.2512997031E-01       4    6    1        -0.1373589043E+01      0.3151741583E+01
          0                 3           2             4    6     1       0.1792901983E-01       4    6    1         0.1003358254E+01      0.2439806483E+01
          0                 4           2             4    7     1      -0.9150007204E-03       4    6    1        -0.5249727324E-01      0.1278532630E+00
          0                 5           2             4    7     1      -0.5343658827E-03       4    7    1        -0.3030101168E-01      0.7421258141E-01
          0                 6           2             4    7     1      -0.1813126153E-03       5    8    1        -0.1028156718E-01      0.2518415062E-01
          0                 7           2             4    7     1      -0.1538124507E-03       5    8    1        -0.8721780571E-02      0.2136378606E-01
          0                 8           1             4    7     1      -0.9972727603E-04       5    8    1        -0.5654912103E-02      0.1385153357E-01

    ------------------------------------------------
       NWT REQUIRED            8 OUTER ITERATIONS 
       AND A TOTAL OF         15 INNER ITERATIONS.
    ------------------------------------------------

 NO OUTPUT CONTROL FOR STRESS PERIOD   46   TIME STEP   30



 STREAM LISTING     PERIOD     46   STEP       30

 LAYER ROW COL. STREAM  RCH.  FLOW INTO     FLOW TO   FLOW OUT OF   OVRLND.     DIRECT     STREAM       STREAM     STREAM     STREAM   STREAMBED  STREAMBED
                SEG.NO.  NO.  STRM. RCH.    AQUIFER    STRM. RCH.    RUNOFF     PRECIP       ET          HEAD       DEPTH      WIDTH   CONDCTNC.   GRADIENT

   1    1    1     1     1    9.3747E+00  1.4265E-01   9.2321E+00  0.000E+00  0.000E+00  0.000E+00  1.09393E+03  8.788E-01  8.172E+00  3.678E-02  1.293E+00
   1    2    2     1     2    9.2321E+00  2.1921E-01   9.0129E+00  0.000E+00  0.000E+00  0.000E+00  1.08893E+03  8.731E-01  8.085E+00  5.660E-02  1.291E+00
   1    3    3     1     3    9.0129E+00  1.8531E-01   8.8275E+00  0.000E+00  0.000E+00  0.000E+00  1.08329E+03  8.667E-01  7.987E+00  4.792E-02  1.289E+00
   1    3    4     1     4    8.8275E+00  1.6930E-01   8.6583E+00  0.000E+00  0.000E+00  0.000E+00  1.07827E+03  8.609E-01  7.901E+00  4.385E-02  1.287E+00
   1    4    5     2     1    6.6583E+00  2.7605E-01   6.3822E+00  0.000E+00  0.000E+00  0.000E+00  1.07247E+03  5.391E-01  1.200E+01  7.800E-02  1.180E+00
   1    5    6     2     2    6.3822E+00  2.1162E-01   6.1706E+00  0.000E+00  0.000E+00  0.000E+00  1.06704E+03  5.270E-01  1.200E+01  6.000E-02  1.176E+00
   1    6    6     2     3    6.1706E+00  2.1097E-01   5.9596E+00  0.000E+00  0.000E+00  0.000E+00  1.06231E+03  5.162E-01  1.200E+01  6.000E-02  1.172E+00
   1    7    6     2     4    5.9596E+00  2.1032E-01   5.7493E+00  0.000E+00  0.000E+00  0.000E+00  1.05758E+03  5.054E-01  1.200E+01  6.000E-02  1.168E+00
   1    8    6     2     5    5.7493E+00  2.0967E-01   5.5396E+00  0.000E+00  0.000E+00  0.000E+00  1.05285E+03  4.944E-01  1.200E+01  6.000E-02  1.165E+00
   1    3    5     3     1    2.0000E+00  2.8252E-01   1.7175E+00  0.000E+00  0.000E+00  0.000E+00  1.07555E+03  1.909E+00  9.636E+00  7.227E-02  1.955E+00
   1    3    6     3     2    1.7175E+00  2.4905E-01   1.4684E+00  0.000E+00  0.000E+00  0.000E+00  1.07264E+03  1.727E+00  8.909E+00  6.682E-02  1.864E+00
   1    3    7     3     3    1.4684E+00  1.9718E-01   1.2712E+00  0.000E+00  0.000E+00  0.000E+00  1.06987E+03  1.555E+00  8.218E+00  5.547E-02  1.777E+00
   1    4    8     3     4    1.2712E+00  2.2567E-01   1.0456E+00  0.000E+00  0.000E+00  0.000E+00  1.06682E+03  1.364E+00  7.455E+00  6.709E-02  1.682E+00
   1    5    8     3     5    1.0456E+00  1.5790E-01   8.8768E-01  0.000E+00  0.000E+00  0.000E+00  1.06362E+03  1.164E+00  6.655E+00  4.991E-02  1.582E+00
   1    6    8     3     6    8.8768E-01  5.5980E-02   8.3170E-01  0.000E+00  0.000E+00  0.000E+00  1.06158E+03  1.036E+00  6.145E+00  1.844E-02  1.518E+00
   1    5   10     4     1    1.0000E+01  9.0919E-02   9.9091E+00  0.000E+00  0.000E+00  0.000E+00  1.07836E+03  6.368E-01  1.000E+01  2.500E-02  1.212E+00
   1    5    9     4     2    9.9091E+00  1.8158E-01   9.7275E+00  0.000E+00  0.000E+00  0.000E+00  1.07154E+03  6.315E-01  1.000E+01  5.000E-02  1.211E+00
   1    6    8     4     3    9.7275E+00  1.2689E-01   9.6006E+00  0.000E+00  0.000E+00  0.000E+00  1.06381E+03  6.256E-01  1.000E+01  3.500E-02  1.209E+00
   1    6    8     5     1    1.0432E+01  2.2686E-01   1.0205E+01  0.000E+00  0.000E+00  0.000E+00  1.05868E+03  6.790E-01  1.542E+01  6.166E-02  1.226E+00
   1    7    7     5     2    1.0205E+01  2.7894E-01   9.9265E+00  0.000E+00  0.000E+00  0.000E+00  1.05417E+03  6.732E-01  1.519E+01  7.594E-02  1.224E+00
   1    8    7     5     3    9.9265E+00  1.9221E-01   9.7343E+00  0.000E+00  0.000E+00  0.000E+00  1.04992E+03  6.676E-01  1.497E+01  5.241E-02  1.223E+00
   1    8    6     5     4    9.7343E+00  1.3577E-01   9.5985E+00  0.000E+00  0.000E+00  0.000E+00  1.04691E+03  6.637E-01  1.482E+01  3.706E-02  1.221E+00
   1    9    6     6     1    9.5985E+00  2.2097E-01   9.3776E+00  0.000E+00  0.000E+00  0.000E+00  1.04341E+03  6.828E-01  1.200E+01  6.000E-02  1.228E+00
   1   10    7     6     2    9.3776E+00  2.2039E-01   9.1572E+00  0.000E+00  0.000E+00  0.000E+00  1.03885E+03  6.732E-01  1.200E+01  6.000E-02  1.224E+00
   1   11    7     6     3    9.1572E+00  2.1981E-01   8.9374E+00  0.000E+00  0.000E+00  0.000E+00  1.03430E+03  6.636E-01  1.200E+01  6.000E-02  1.221E+00
   1   12    7     6     4    8.9374E+00  2.1923E-01   8.7181E+00  0.000E+00  0.000E+00  0.000E+00  1.02974E+03  6.539E-01  1.200E+01  6.000E-02  1.218E+00
   1   13    7     6     5    8.7181E+00  2.2369E-03   8.7159E+00  0.000E+00  0.000E+00  0.000E+00  1.02656E+03  6.489E-01  1.200E+01  2.400E-02  3.107E-02
   1   14    9     7     1    1.5000E+02  1.4131E+00   1.4859E+02  0.000E+00  0.000E+00  0.000E+00  1.03987E+03  2.288E+00  5.529E+01  5.593E-01  8.422E-01
   1   13    8     7     2    1.4859E+02  2.0480E+00   1.4654E+02  0.000E+00  0.000E+00  0.000E+00  1.03478E+03  2.278E+00  5.525E+01  6.147E-01  1.111E+00
   1   13    7     7     3    1.4654E+02  1.7993E+00   1.4474E+02  0.000E+00  0.000E+00  0.000E+00  1.02969E+03  2.268E+00  5.521E+01  5.583E-01  1.074E+00
   1   13    6     8     1    1.5346E+02  1.1396E+00   1.5232E+02  0.000E+00  0.000E+00  0.000E+00  1.02471E+03  2.837E+00  4.114E+01  4.192E-01  9.062E-01
   1   13    5     8     2    1.5232E+02  3.8413E-01   1.5193E+02  0.000E+00  0.000E+00  0.000E+00  1.01846E+03  2.832E+00  4.106E+01  4.184E-01  3.060E-01
   1   13    4     8     3    1.5193E+02 -1.7489E+00   1.5368E+02  0.000E+00  0.000E+00  0.000E+00  1.01221E+03  2.836E+00  4.113E+01  4.191E+00 -1.391E-01
   1   13    3     8     4    1.5368E+02 -3.3127E+00   1.5699E+02  0.000E+00  0.000E+00  0.000E+00  1.00598E+03  2.854E+00  4.138E+01  4.217E+00 -2.618E-01
   1   13    2     8     5    1.5699E+02 -2.5251E+00   1.5952E+02  0.000E+00  0.000E+00  0.000E+00  9.99749E+02  2.874E+00  4.167E+01  4.247E+00 -1.982E-01
   1   13    1     8     6    1.5952E+02 -1.9747E+00   1.6149E+02  0.000E+00  0.000E+00  0.000E+00  9.94764E+02  2.889E+00  4.189E+01  2.562E+00 -2.570E-01
   1    8    6     9     1    5.5396E+00  0.0000E+00   5.5396E+00  0.000E+00  0.000E+00  0.000E+00  1.08034E+03  1.590E+00  4.000E+00  0.000E+00  1.530E+00
   1    8    5     9     2    5.5396E+00  0.0000E+00   5.5396E+00  0.000E+00  0.000E+00  0.000E+00  1.07984E+03  1.590E+00  4.000E+00  0.000E+00  1.530E+00





UNSATURATED ZONE PACKAGE VOLUMETRIC BUDGET FOR  TIME STEP    30 STRESS PERIOD   46
  ------------------------------------------------------------------------------



     CUMULATIVE VOLUMES      L**3       RATES FOR THIS TIME STEP      L**3/T
     ------------------                 ------------------------

           IN:                                      IN:
           ---                                      ---
        INFILTRATION =  7030157938.8444          INFILTRATION =           6.8898

          OUT:                                     OUT:
          ----                                     ----
              UZF ET =  1702587151.6657                UZF ET =          12.0665
        UZF RECHARGE =  4868961498.1632          UZF RECHARGE =       0.0000E+00

            IN - OUT =   458609289.0155              IN - OUT =          -5.1767

          STORAGE:                                 STORAGE:
          --------                                 --------
      STORAGE CHANGE =   458749193.4036        STORAGE CHANGE =          -4.9668

 PERCENT DISCREPANCY IS DIFFERENCE BETWEEN IN-OUT MINUS CHANGE IN STORAGE
 DIVIDED BY THE AVERAGE OF IN AND OUT TIMES 100

 PERCENT DISCREPANCY =          -0.00     PERCENT DISCREPANCY =          -1.74






1
  VOLUMETRIC BUDGET FOR AGRICULTURAL FIELDS AT  END OF TIME STEP   30, STRESS PERIOD  46
  ------------------------------------------------------------------------------

     CUMULATIVE VOLUMES      L**3       RATES FOR THIS TIME STEP      L**3/T
     ------------------                 ------------------------

           IN:                                      IN:
           ---                                      ---
               AG WELLS  =  5975031808.0000                 AG WELLS  =           0.5026
      DIVERSION SEGMENTS =   954768512.0000        DIVERSION SEGMENTS =           5.5396
           GW IRRIGATION =           0.0000             GW IRRIGATION =           0.0000
           SW IRRIGATION =           0.0000             SW IRRIGATION =           0.0000
        SYSTEM LOSSES GW =           0.0000          SYSTEM LOSSES GW =           0.0000
        SYSTEM LOSSES SW =           0.0000          SYSTEM LOSSES SW =           0.0000

                TOTAL IN =  6929800192.0000                  TOTAL IN =           6.0422

          OUT:                                     OUT:
          ----                                     ----
               AG WELLS  =           0.0000                 AG WELLS  =           0.0000
      DIVERSION SEGMENTS =           0.0000        DIVERSION SEGMENTS =           0.0000
           GW IRRIGATION =  5975031808.0000             GW IRRIGATION =           0.5026
           SW IRRIGATION =   954785280.0000             SW IRRIGATION =           5.5397
        SYSTEM LOSSES GW =           0.0000          SYSTEM LOSSES GW =           0.0000
        SYSTEM LOSSES SW =           0.0000          SYSTEM LOSSES SW =           0.0000

               TOTAL OUT =  6929817088.0000                 TOTAL OUT =           6.0423

                IN - OUT =      -16896.0000                  IN - OUT =      -1.1063E-04

     PERCENT DISCREPANCY =          -0.00         PERCENT DISCREPANCY =          -0.00



1
  VOLUMETRIC BUDGET FOR ENTIRE MODEL AT END OF TIME STEP   30, STRESS PERIOD  46
  ------------------------------------------------------------------------------

     CUMULATIVE VOLUMES      L**3       RATES FOR THIS TIME STEP      L**3/T
     ------------------                 ------------------------

           IN:                                      IN:
           ---                                      ---
             STORAGE     =  5957178368.0000               STORAGE     =          17.7564
       CONSTANT HEAD     =           0.0000         CONSTANT HEAD     =           0.0000
     HEAD DEP BOUNDS     =    34261996.0000       HEAD DEP BOUNDS     =           0.2910
      STREAM LEAKAGE     =  1437342720.0000        STREAM LEAKAGE     =          11.9033
        UZF RECHARGE     =  4868958720.0000          UZF RECHARGE     =           0.0000
               GW ET     =           0.0000                 GW ET     =           0.0000
     SURFACE LEAKAGE     =           0.0000       SURFACE LEAKAGE     =           0.0000
           AG WELLS      =           0.0000             AG WELLS      =           0.0000

                TOTAL IN = 12297742336.0000                  TOTAL IN =          29.9508

          OUT:                                     OUT:
          ----                                     ----
             STORAGE     =  5148263424.0000               STORAGE     =          19.6000
       CONSTANT HEAD     =           0.0000         CONSTANT HEAD     =           0.0000
     HEAD DEP BOUNDS     =    34024164.0000       HEAD DEP BOUNDS     =           0.2863
      STREAM LEAKAGE     =  1140288640.0000        STREAM LEAKAGE     =           9.5614
        UZF RECHARGE     =           0.0000          UZF RECHARGE     =           0.0000
               GW ET     =           0.0000                 GW ET     =           0.0000
     SURFACE LEAKAGE     =           0.0000       SURFACE LEAKAGE     =           0.0000
           AG WELLS      =  5975031808.0000             AG WELLS      =           0.5026

               TOTAL OUT = 12297607168.0000                 TOTAL OUT =          29.9504

                IN - OUT =      135168.0000                  IN - OUT =       4.5204E-04

     PERCENT DISCREPANCY =           0.00         PERCENT DISCREPANCY =           0.00






         TIME SUMMARY AT END OF TIME STEP   30 IN STRESS PERIOD   46
                    SECONDS     MINUTES      HOURS       DAYS        YEARS
                    -----------------------------------------------------------
   TIME STEP LENGTH  87667.      1461.1      24.352      1.0147     2.77799E-03
 STRESS PERIOD TIME 2.63000E+06  43833.      730.56      30.440     8.33397E-02
         TOTAL TIME 1.18435E+08 1.97392E+06  32899.      1370.8      3.7530    
1
1
                            STRESS PERIOD NO.   47, LENGTH =   2630000.    
                            -----------------------------------------------

                              NUMBER OF TIME STEPS =    30

                               MULTIPLIER FOR DELT =     1.000

                            INITIAL TIME STEP SIZE =   87666.66    

 REUSING NON-PARAMETER GHB CELLS FROM LAST STRESS PERIOD

      2 GHB CELLS

 REUSING STREAM SEGMENT DATA FROM LAST STRESS PERIOD



            AREAL INFILTRATION RATE
 READING ON UNIT   19 WITH FORMAT: (FREE)              

            1           2           3           4           5           6           7           8           9          10
 ........................................................................................................................
   1   1.0000E-10  2.0000E-10   0.000       0.000       0.000       0.000       0.000       0.000       0.000       0.000    
   2   2.0000E-10  1.0000E-10  2.0000E-10   0.000       0.000      8.0000E-10  8.0000E-10  5.0000E-10   0.000       0.000    
   3    0.000      5.0000E-10  1.0000E-10  1.0000E-10  8.0000E-10  8.0000E-10  5.0000E-10  5.0000E-10   0.000       0.000    
   4   8.0000E-10  5.0000E-10  1.0000E-10  1.0000E-10  1.0000E-10  1.0000E-10  1.0000E-10  1.0000E-10  2.0000E-10   0.000    
   5   8.0000E-10  5.0000E-10  1.0000E-10  1.0000E-10  1.0000E-10  1.0000E-10  1.0000E-10  1.0000E-10  1.0000E-10  1.0000E-10
   6   8.0000E-10  5.0000E-10  5.0000E-10  2.0000E-10  2.0000E-10  1.0000E-10  1.0000E-10  1.0000E-10  1.0000E-10  5.0000E-10
   7   8.0000E-10  5.0000E-10  5.0000E-10  2.0000E-10  2.0000E-10  1.0000E-10  1.0000E-10  2.0000E-10  2.0000E-10   0.000    
   8    0.000      5.0000E-10  5.0000E-10  2.0000E-10  2.0000E-10  1.0000E-10  1.0000E-10  2.0000E-10  5.0000E-10   0.000    
   9    0.000      5.0000E-10  5.0000E-10  2.0000E-10  2.0000E-10  1.0000E-10  1.0000E-10  2.0000E-10  5.0000E-10   0.000    
  10    0.000      5.0000E-10  5.0000E-10  2.0000E-10  2.0000E-10  1.0000E-10  1.0000E-10  2.0000E-10  5.0000E-10  8.0000E-10
  11    0.000      1.0000E-10  1.0000E-10  1.0000E-10  1.0000E-10  1.0000E-10  1.0000E-10  2.0000E-10  5.0000E-10   0.000    
  12   1.0000E-10  1.0000E-10  1.0000E-10  1.0000E-10  1.0000E-10  1.0000E-10  1.0000E-10  1.0000E-10  2.0000E-10   0.000    
  13   1.0000E-10  1.0000E-10  2.0000E-10  2.0000E-10  2.0000E-10  2.0000E-10  2.0000E-10  1.0000E-10  1.0000E-10   0.000    
  14    0.000      2.0000E-10  5.0000E-10  5.0000E-10  5.0000E-10  5.0000E-10  5.0000E-10  2.0000E-10  1.0000E-10   0.000    
  15    0.000       0.000      8.0000E-10  8.0000E-10  8.0000E-10  8.0000E-10   0.000       0.000       0.000       0.000    

                  ET RATE =  5.000000E-09

 USING ET EXTINCTION DEPTH FROM PREVIOUS STRESS PERIOD. CURRENT PERIOD IS:      47

 USING EXTINCTION WATER CONTENT FROM PREVIOUS STRESS PERIOD. CURRENT PERIOD IS:      47

 USING AIR ENTRY PRESSURE FROM PREVIOUS STRESS PERIOD. CURRENT PERIOD IS:      47

 USING ROOT PRESSURE HEAD FROM PREVIOUS STRESS PERIOD. CURRENT PERIOD IS:      47

 USING ROOT ACTIVITY FROM PREVIOUS STRESS PERIOD. CURRENT PERIOD IS:      47

 PROCESSING AG STRESS PERIOD DATA

 READING AG STRESS PERIOD DATA

 READING IRRIGATION SEGMENT

 READING IRRIGATION WELL

 READING SUPPLEMENTAL WELL

 END PROCESSING AG STRESS PERIOD DATA OPTIONS
 
 SOLVING FOR HEAD 
                                                   Max.-Head-Change                         Max.-Flux-Residual
  Residual-Control   Outer-Iter.   Inner-Iter.     Column Row Layer    Maximum-Head-Change  Column Row Layer    Maximum-Flux-Residual          L2-NORM 
          0                 1           2             4    6     1       0.8132255551E-01       4    6    1         0.4362064652E+01      0.9391416855E+01
          0                 2           2             4    6     1      -0.7910474197E-02       4    6    1        -0.4362070427E+00      0.9391219771E+00
          0                 3           2             4    6     1       0.5386724765E-03       4    6    1         0.3053442123E-01      0.6573832622E-01
          0                 4           1             4    6     1      -0.2157561885E-04       4    6    1        -0.1256985691E-02      0.2706071551E-02

    ------------------------------------------------
       NWT REQUIRED            4 OUTER ITERATIONS 
       AND A TOTAL OF          7 INNER ITERATIONS.
    ------------------------------------------------

 NO OUTPUT CONTROL FOR STRESS PERIOD   47   TIME STEP    1
 
 SOLVING FOR HEAD 
                                                   Max.-Head-Change                         Max.-Flux-Residual
  Residual-Control   Outer-Iter.   Inner-Iter.     Column Row Layer    Maximum-Head-Change  Column Row Layer    Maximum-Flux-Residual          L2-NORM 
          0                 1           2             4    6     1       0.7880039004E-01       4    6    1         0.4225321301E+01      0.9048877232E+01
          0                 2           2             4    6     1      -0.7665137901E-02       4    6    1        -0.4225328085E+00      0.9048685099E+00
          0                 3           2             4    6     1       0.5219634201E-03       4    6    1         0.2957708093E-01      0.6334010684E-01
          0                 4           1             4    6     1      -0.2076942194E-04       4    6    1        -0.1209704321E-02      0.2590574680E-02

    ------------------------------------------------
       NWT REQUIRED            4 OUTER ITERATIONS 
       AND A TOTAL OF          7 INNER ITERATIONS.
    ------------------------------------------------

 NO OUTPUT CONTROL FOR STRESS PERIOD   47   TIME STEP    2
 
 SOLVING FOR HEAD 
                                                   Max.-Head-Change                         Max.-Flux-Residual
  Residual-Control   Outer-Iter.   Inner-Iter.     Column Row Layer    Maximum-Head-Change  Column Row Layer    Maximum-Flux-Residual          L2-NORM 
          0                 1           2             4    6     1       0.2358448432E+00       4    6    1         0.1259032306E+02      0.2474868238E+02
          0                 2           2             4    6     1       0.9640389937E-01       4    6    1         0.5133103985E+01      0.1000937148E+02
          0                 3           2             4    6     1       0.3941599279E-01       4    6    1         0.2099437488E+01      0.4106621400E+01
          0                 4           2             4    6     1       0.1611987005E-01       4    6    1         0.8583489321E+00      0.1685495485E+01
          0                 5           2             4    6     1       0.6594194104E-02       4    6    1         0.3510604484E+00      0.6922300847E+00
          0                 6           2             4    6     1       0.2698191972E-02       4    6    1         0.1436160238E+00      0.2844215950E+00
          0                 7           2             4    6     1       0.1104318682E-02       4    6    1         0.5876734212E-01      0.1169119424E+00
          0                 8           2             4    6     1       0.4520908422E-03       4    6    1         0.2405355549E-01      0.4807537166E-01
          0                 9           2             4    6     1       0.1851252836E-03       4    6    1         0.9847638511E-02      0.1977609234E-01
          0                10           1             4    6     1       0.7582524372E-04       4    6    1         0.4032676958E-02      0.8137661663E-02

    ------------------------------------------------
       NWT REQUIRED           10 OUTER ITERATIONS 
       AND A TOTAL OF         19 INNER ITERATIONS.
    ------------------------------------------------

 NO OUTPUT CONTROL FOR STRESS PERIOD   47   TIME STEP    3
 
 SOLVING FOR HEAD 
                                                   Max.-Head-Change                         Max.-Flux-Residual
  Residual-Control   Outer-Iter.   Inner-Iter.     Column Row Layer    Maximum-Head-Change  Column Row Layer    Maximum-Flux-Residual          L2-NORM 
          0                 1           2             4    6     1       0.2459048862E+00       4    6    1         0.1305415029E+02      0.3038066871E+02
          0                 2           2             4    6     1       0.1011412955E+00       4    6    1         0.5359415109E+01      0.1243436206E+02
          0                 3           2             4    6     1       0.4160497547E-01       4    6    1         0.2205228347E+01      0.5122710055E+01
          0                 4           2             4    6     1       0.1711662420E-01       4    6    1         0.9070974202E+00      0.2110486147E+01
          0                 5           2             4    7     1       0.7119918262E-02       4    6    1         0.3732008297E+00      0.8697368164E+00
          0                 6           2             4    7     1       0.2977648344E-02       4    7    1         0.1557514320E+00      0.3584819317E+00
          0                 7           2             4    7     1       0.1244492846E-02       4    7    1         0.6512894178E-01      0.1477815291E+00
          0                 8           2             4    7     1       0.5198136187E-03       4    7    1         0.2721696543E-01      0.6093110632E-01
          0                 9           2             4    7     1       0.2169970322E-03       4    7    1         0.1136696675E-01      0.2512571246E-01
          0                10           1             4    7     1       0.9053667500E-04       4    7    1         0.4744638569E-02      0.1036222023E-01

    ------------------------------------------------
       NWT REQUIRED           10 OUTER ITERATIONS 
       AND A TOTAL OF         19 INNER ITERATIONS.
    ------------------------------------------------

 NO OUTPUT CONTROL FOR STRESS PERIOD   47   TIME STEP    4
 
 SOLVING FOR HEAD 
                                                   Max.-Head-Change                         Max.-Flux-Residual
  Residual-Control   Outer-Iter.   Inner-Iter.     Column Row Layer    Maximum-Head-Change  Column Row Layer    Maximum-Flux-Residual          L2-NORM 
          0                 1           2             4    6     1       0.2366085959E+00       4    6    1         0.1255312958E+02      0.2921583577E+02
          0                 2           2             4    6     1       0.9733706002E-01       4    6    1         0.5157555715E+01      0.1199237300E+02
          0                 3           2             4    7     1       0.4015852307E-01       4    6    1         0.2122327607E+01      0.4942136781E+01
          0                 4           2             4    7     1       0.1680015229E-01       4    7    1         0.8785399410E+00      0.2036738882E+01
          0                 5           2             4    7     1       0.7023626396E-02       4    7    1         0.3674853281E+00      0.8395662923E+00
          0                 6           2             4    7     1       0.2934529296E-02       4    7    1         0.1536148790E+00      0.3461307800E+00
          0                 7           2             4    7     1       0.1225348069E-02       4    7    1         0.6417392831E-01      0.1427214372E+00
          0                 8           2             4    7     1       0.5113739586E-03       4    7    1         0.2679358019E-01      0.5885667193E-01
          0                 9           2             4    7     1       0.2132991420E-03       4    7    1         0.1118056269E-01      0.2427474975E-01
          0                10           1             4    7     1       0.8892490191E-04       4    7    1         0.4663053960E-02      0.1001294333E-01

    ------------------------------------------------
       NWT REQUIRED           10 OUTER ITERATIONS 
       AND A TOTAL OF         19 INNER ITERATIONS.
    ------------------------------------------------

 NO OUTPUT CONTROL FOR STRESS PERIOD   47   TIME STEP    5
 
 SOLVING FOR HEAD 
                                                   Max.-Head-Change                         Max.-Flux-Residual
  Residual-Control   Outer-Iter.   Inner-Iter.     Column Row Layer    Maximum-Head-Change  Column Row Layer    Maximum-Flux-Residual          L2-NORM 
          0                 1           2             4    6     1       0.2278314364E+00       4    6    1         0.1208028849E+02      0.2609062804E+02
          0                 2           2             4    7     1       0.9469027081E-01       4    6    1         0.4966948810E+01      0.1065319535E+02
          0                 3           2             4    7     1       0.3955187752E-01       4    7    1         0.2071056418E+01      0.4371850354E+01
          0                 4           2             4    7     1       0.1650346206E-01       4    7    1         0.8648800628E+00      0.1794328560E+01
          0                 5           2             4    7     1       0.6879658062E-02       4    7    1         0.3608099864E+00      0.7366071456E+00
          0                 6           2             4    7     1       0.2865341283E-02       4    7    1         0.1503803854E+00      0.3024464748E+00
          0                 7           2             4    7     1       0.1192433037E-02       4    7    1         0.6262215274E-01      0.1242036514E+00
          0                 8           2             4    7     1       0.4958692710E-03       4    7    1         0.2605665156E-01      0.5101364049E-01
          0                 9           2             4    7     1       0.2060633309E-03       4    7    1         0.1083402736E-01      0.2095551121E-01
          0                10           1             4    7     1       0.8557698914E-04       4    7    1         0.4501593160E-02      0.8609235079E-02

    ------------------------------------------------
       NWT REQUIRED           10 OUTER ITERATIONS 
       AND A TOTAL OF         19 INNER ITERATIONS.
    ------------------------------------------------

 NO OUTPUT CONTROL FOR STRESS PERIOD   47   TIME STEP    6
 
 SOLVING FOR HEAD 
                                                   Max.-Head-Change                         Max.-Flux-Residual
  Residual-Control   Outer-Iter.   Inner-Iter.     Column Row Layer    Maximum-Head-Change  Column Row Layer    Maximum-Flux-Residual          L2-NORM 
          0                 1           2             4    7     1       0.2233077254E+00       4    7    1         0.1168863526E+02      0.2500006234E+02
          0                 2           2             4    7     1       0.9323446813E-01       4    7    1         0.4883493522E+01      0.1023488696E+02
          0                 3           2             4    7     1       0.3888768828E-01       4    7    1         0.2038600586E+01      0.4201085963E+01
          0                 4           2             4    7     1       0.1620484140E-01       4    7    1         0.8501236032E+00      0.1724732899E+01
          0                 5           2             4    7     1       0.6746940614E-02       4    7    1         0.3541920206E+00      0.7082084926E+00
          0                 6           2             4    7     1       0.2806905018E-02       4    7    1         0.1474450983E+00      0.2908507138E+00
          0                 7           2             4    7     1       0.1166900132E-02       4    7    1         0.6133186582E-01      0.1194656079E+00
          0                 8           2             4    7     1       0.4847844670E-03       4    7    1         0.2549365436E-01      0.4907647601E-01
          0                 9           2             4    7     1       0.2012771164E-03       4    7    1         0.1058989235E-01      0.2016304669E-01
          0                10           1             4    7     1       0.8352000289E-04       4    7    1         0.4396284464E-02      0.8284882173E-02

    ------------------------------------------------
       NWT REQUIRED           10 OUTER ITERATIONS 
       AND A TOTAL OF         19 INNER ITERATIONS.
    ------------------------------------------------

 NO OUTPUT CONTROL FOR STRESS PERIOD   47   TIME STEP    7
 
 SOLVING FOR HEAD 
                                                   Max.-Head-Change                         Max.-Flux-Residual
  Residual-Control   Outer-Iter.   Inner-Iter.     Column Row Layer    Maximum-Head-Change  Column Row Layer    Maximum-Flux-Residual          L2-NORM 
          0                 1           2             4    7     1       0.2197454015E+00       4    7    1         0.1151483534E+02      0.2406744939E+02
          0                 2           2             4    7     1       0.9157232159E-01       4    7    1         0.4802809904E+01      0.9844381927E+01
          0                 3           2             4    7     1       0.3813493804E-01       4    7    1         0.2001620669E+01      0.4041259751E+01
          0                 4           2             4    7     1       0.1586768232E-01       4    7    1         0.8334192330E+00      0.1659495065E+01
          0                 5           2             4    7     1       0.6597282859E-02       4    7    1         0.3467243185E+00      0.6815336008E+00
          0                 6           2             4    7     1       0.2740972370E-02       4    7    1         0.1441356445E+00      0.2799368083E+00
          0                 7           2             4    7     1       0.1138036967E-02       4    7    1         0.5987581841E-01      0.1149965534E+00
          0                 8           2             4    7     1       0.4722176030E-03       4    7    1         0.2485697205E-01      0.4724517289E-01
          0                 9           2             4    7     1       0.1958312416E-03       4    7    1         0.1031295713E-01      0.1941211896E-01
          0                10           1             4    7     1       0.8116969340E-04       4    7    1         0.4276376835E-02      0.7976771455E-02

    ------------------------------------------------
       NWT REQUIRED           10 OUTER ITERATIONS 
       AND A TOTAL OF         19 INNER ITERATIONS.
    ------------------------------------------------

 NO OUTPUT CONTROL FOR STRESS PERIOD   47   TIME STEP    8
 
 SOLVING FOR HEAD 
                                                   Max.-Head-Change                         Max.-Flux-Residual
  Residual-Control   Outer-Iter.   Inner-Iter.     Column Row Layer    Maximum-Head-Change  Column Row Layer    Maximum-Flux-Residual          L2-NORM 
          0                 1           2             4    7     1       0.2157154927E+00       4    7    1         0.1131711591E+02      0.2321749211E+02
          0                 2           2             4    7     1       0.8981571531E-01       4    7    1         0.4714858297E+01      0.9485324247E+01
          0                 3           2             4    7     1       0.3736688684E-01       4    7    1         0.1962813473E+01      0.3896031227E+01
          0                 4           2             4    7     1       0.1553474559E-01       4    7    1         0.8164852780E+00      0.1600997324E+01
          0                 5           2             4    7     1       0.6453993746E-02       4    7    1         0.3393949821E+00      0.6579391851E+00
          0                 6           2             4    7     1       0.2679677183E-02       4    7    1         0.1409853617E+00      0.2704172207E+00
          0                 7           2             4    7     1       0.1111952609E-02       4    7    1         0.5852970786E-01      0.1111537366E+00
          0                 8           2             4    7     1       0.4611672080E-03       4    7    1         0.2428467851E-01      0.4569331408E-01
          0                 9           2             4    7     1       0.1911682391E-03       4    7    1         0.1007071233E-01      0.1878520396E-01
          0                10           1             4    7     1       0.7920883345E-04       4    7    1         0.4174230149E-02      0.7723436217E-02

    ------------------------------------------------
       NWT REQUIRED           10 OUTER ITERATIONS 
       AND A TOTAL OF         19 INNER ITERATIONS.
    ------------------------------------------------

 NO OUTPUT CONTROL FOR STRESS PERIOD   47   TIME STEP    9
 
 SOLVING FOR HEAD 
                                                   Max.-Head-Change                         Max.-Flux-Residual
  Residual-Control   Outer-Iter.   Inner-Iter.     Column Row Layer    Maximum-Head-Change  Column Row Layer    Maximum-Flux-Residual          L2-NORM 
          0                 1           2             4    7     1       0.2114685459E+00       4    7    1         0.1110267639E+02      0.2244937098E+02
          0                 2           2             4    7     1       0.8795856534E-01       4    7    1         0.4621192959E+01      0.9142606143E+01
          0                 3           2             4    7     1       0.3655939699E-01       4    7    1         0.1921844676E+01      0.3754708468E+01
          0                 4           2             4    7     1       0.1518551073E-01       4    7    1         0.7986964262E+00      0.1542934173E+01
          0                 5           2             4    7     1       0.6303637173E-02       4    7    1         0.3317084246E+00      0.6340879290E+00
          0                 6           2             4    7     1       0.2615198175E-02       4    7    1         0.1376788488E+00      0.2606125687E+00
          0                 7           2             4    7     1       0.1084396127E-02       4    7    1         0.5711276143E-01      0.1071221156E+00
          0                 8           2             4    7     1       0.4494258086E-03       4    7    1         0.2367949994E-01      0.4403493704E-01
          0                 9           2             4    7     1       0.1861787212E-03       4    7    1         0.9812998813E-02      0.1810283799E-01
          0                10           1             4    7     1       0.7709355094E-04       4    7    1         0.4064768819E-02      0.7442587777E-02

    ------------------------------------------------
       NWT REQUIRED           10 OUTER ITERATIONS 
       AND A TOTAL OF         19 INNER ITERATIONS.
    ------------------------------------------------

 NO OUTPUT CONTROL FOR STRESS PERIOD   47   TIME STEP   10
 
 SOLVING FOR HEAD 
                                                   Max.-Head-Change                         Max.-Flux-Residual
  Residual-Control   Outer-Iter.   Inner-Iter.     Column Row Layer    Maximum-Head-Change  Column Row Layer    Maximum-Flux-Residual          L2-NORM 
          0                 1           2             4    7     1       0.2070251170E+00       4    7    1         0.1087663487E+02      0.2174093788E+02
          0                 2           2             4    7     1       0.8593774761E-01       4    7    1         0.4520546756E+01      0.8820748643E+01
          0                 3           2             4    7     1       0.3566807735E-01       4    7    1         0.1877133363E+01      0.3620889029E+01
          0                 4           2             4    7     1       0.1479506182E-01       4    7    1         0.7790089704E+00      0.1487593342E+01
          0                 5           2             4    7     1       0.6133582183E-02       4    7    1         0.3230945526E+00      0.6111793485E+00
          0                 6           2             4    7     1       0.2541496530E-02       4    7    1         0.1339311509E+00      0.2511252286E+00
          0                 7           2             4    7     1       0.1052589127E-02       4    7    1         0.5548996506E-01      0.1031912539E+00
          0                 8           2             4    7     1       0.4357495854E-03       4    7    1         0.2297970236E-01      0.4240564987E-01
          0                 9           2             4    7     1       0.1803172627E-03       4    7    1         0.9512306885E-02      0.1742729557E-01
          0                10           1             4    7     1       0.7458855704E-04       4    7    1         0.3935972765E-02      0.7162410900E-02

    ------------------------------------------------
       NWT REQUIRED           10 OUTER ITERATIONS 
       AND A TOTAL OF         19 INNER ITERATIONS.
    ------------------------------------------------

 NO OUTPUT CONTROL FOR STRESS PERIOD   47   TIME STEP   11
 
 SOLVING FOR HEAD 
                                                   Max.-Head-Change                         Max.-Flux-Residual
  Residual-Control   Outer-Iter.   Inner-Iter.     Column Row Layer    Maximum-Head-Change  Column Row Layer    Maximum-Flux-Residual          L2-NORM 
          0                 1           2             4    7     1       0.2022073819E+00       4    7    1         0.1063489114E+02      0.2107989115E+02
          0                 2           2             4    7     1       0.8391747010E-01       4    7    1         0.4416935944E+01      0.8513058419E+01
          0                 3           2             4    7     1       0.3480603760E-01       4    7    1         0.1832739446E+01      0.3492792018E+01
          0                 4           2             4    7     1       0.1442836510E-01       4    7    1         0.7600777999E+00      0.1434619924E+01
          0                 5           2             4    7     1       0.5978013359E-02       4    7    1         0.3150466255E+00      0.5892670980E+00
          0                 6           2             4    7     1       0.2475652397E-02       4    7    1         0.1305185245E+00      0.2420607891E+00
          0                 7           2             4    7     1       0.1024778459E-02       4    7    1         0.5404622422E-01      0.9944146590E-01
          0                 8           2             4    7     1       0.4240247051E-03       4    7    1         0.2237014565E-01      0.4085439381E-01
          0                 9           2             4    7     1       0.1753821589E-03       4    7    1         0.9255409273E-02      0.1678554642E-01
          0                10           1             4    7     1       0.7251435539E-04       4    7    1         0.3827875855E-02      0.6896920518E-02

    ------------------------------------------------
       NWT REQUIRED           10 OUTER ITERATIONS 
       AND A TOTAL OF         19 INNER ITERATIONS.
    ------------------------------------------------

 NO OUTPUT CONTROL FOR STRESS PERIOD   47   TIME STEP   12
 
 SOLVING FOR HEAD 
                                                   Max.-Head-Change                         Max.-Flux-Residual
  Residual-Control   Outer-Iter.   Inner-Iter.     Column Row Layer    Maximum-Head-Change  Column Row Layer    Maximum-Flux-Residual          L2-NORM 
          0                 1           2             4    7     1       0.1971308839E+00       4    7    1         0.1038442014E+02      0.2012732412E+02
          0                 2           2             4    7     1       0.8093852629E-01       4    7    1         0.4304388756E+01      0.7502721798E+01
          0                 3           2             4    7     1       0.3313507822E-01       4    7    1         0.1763249296E+01      0.3062313605E+01
          0                 4           2             4    7     1       0.1356183642E-01       4    7    1         0.7217367096E+00      0.1252186324E+01
          0                 5           2             4    7     1       0.5550547641E-02       4    7    1         0.2953948390E+00      0.5119931602E+00
          0                 6           2             4    7     1       0.2271676570E-02       4    7    1         0.1208979827E+00      0.2093509929E+00
          0                 7           2             4    7     1       0.9297169070E-03       4    7    1         0.4947987667E-01      0.8560462551E-01
          0                 8           2             4    7     1       0.3804944725E-03       4    7    1         0.2025030781E-01      0.3500501974E-01
          0                 9           2             4    7     1       0.1557181445E-03       4    7    1         0.8287584541E-02      0.1431440845E-01
          0                10           1             4    7     1       0.6372696137E-04       4    7    1         0.3391700675E-02      0.5853648604E-02

    ------------------------------------------------
       NWT REQUIRED           10 OUTER ITERATIONS 
       AND A TOTAL OF         19 INNER ITERATIONS.
    ------------------------------------------------

 NO OUTPUT CONTROL FOR STRESS PERIOD   47   TIME STEP   13
 
 SOLVING FOR HEAD 
                                                   Max.-Head-Change                         Max.-Flux-Residual
  Residual-Control   Outer-Iter.   Inner-Iter.     Column Row Layer    Maximum-Head-Change  Column Row Layer    Maximum-Flux-Residual          L2-NORM 
          0                 1           2             4    7     1       0.1884327612E+00       4    7    1         0.1004193378E+02      0.1826435803E+02
          0                 2           2             4    7     1       0.7713885968E-01       4    7    1         0.4102838746E+01      0.7189829613E+01
          0                 3           2             4    7     1       0.3157738962E-01       4    7    1         0.1680337723E+01      0.2933746456E+01
          0                 4           2             4    7     1       0.1292608483E-01       4    7    1         0.6878026052E+00      0.1199509555E+01
          0                 5           2             4    7     1       0.5291096551E-02       4    7    1         0.2815526042E+00      0.4904307588E+00
          0                 6           2             4    7     1       0.2165769893E-02       4    7    1         0.1152484300E+00      0.2005236866E+00
          0                 7           2             4    7     1       0.8864760463E-03       4    7    1         0.4717366494E-01      0.8199072612E-01
          0                 8           2             4    7     1       0.3628356441E-03       4    7    1         0.1930865377E-01      0.3352540291E-01
          0                 9           2             4    7     1       0.1485050911E-03       4    7    1         0.7903012435E-02      0.1370858811E-01
          0                10           1             4    7     1       0.6078010054E-04       4    7    1         0.3234609197E-02      0.5605574502E-02

    ------------------------------------------------
       NWT REQUIRED           10 OUTER ITERATIONS 
       AND A TOTAL OF         19 INNER ITERATIONS.
    ------------------------------------------------

 NO OUTPUT CONTROL FOR STRESS PERIOD   47   TIME STEP   14
 
 SOLVING FOR HEAD 
                                                   Max.-Head-Change                         Max.-Flux-Residual
  Residual-Control   Outer-Iter.   Inner-Iter.     Column Row Layer    Maximum-Head-Change  Column Row Layer    Maximum-Flux-Residual          L2-NORM 
          0                 1           2             4    7     1       0.1778380132E+00       4    7    1         0.9587298379E+01      0.1585759514E+02
          0                 2           2             4    7     1       0.7174231025E-01       4    7    1         0.3861175346E+01      0.6071571490E+01
          0                 3           2             4    7     1       0.2895050290E-01       4    7    1         0.1558264633E+01      0.2451696811E+01
          0                 4           2             4    7     1       0.1168556435E-01       4    7    1         0.6288132621E+00      0.9931333510E+00
          0                 5           2             4    7     1       0.4717953977E-02       4    7    1         0.2538301883E+00      0.4023601451E+00
          0                 6           2             4    6     1       0.1914295447E-02       4    7    1         0.1024869143E+00      0.1630433485E+00
          0                 7           2             4    6     1       0.7833307160E-03       4    6    1         0.4169671692E-01      0.6607859072E-01
          0                 8           2             4    6     1       0.3203763579E-03       4    6    1         0.1706051576E-01      0.2678434867E-01
          0                 9           2             4    6     1       0.1309694866E-03       4    6    1         0.6976935663E-02      0.1085819589E-01
          0                10           1             4    6     1       0.5351655907E-04       4    6    1         0.2851901735E-02      0.4402351712E-02

    ------------------------------------------------
       NWT REQUIRED           10 OUTER ITERATIONS 
       AND A TOTAL OF         19 INNER ITERATIONS.
    ------------------------------------------------

 NO OUTPUT CONTROL FOR STRESS PERIOD   47   TIME STEP   15
 
 SOLVING FOR HEAD 
                                                   Max.-Head-Change                         Max.-Flux-Residual
  Residual-Control   Outer-Iter.   Inner-Iter.     Column Row Layer    Maximum-Head-Change  Column Row Layer    Maximum-Flux-Residual          L2-NORM 
          0                 1           2             4    7     1       0.1659759546E+00       4    7    1         0.8959223574E+01      0.1509834679E+02
          0                 2           2             4    7     1       0.6720007915E-01       4    7    1         0.3608920182E+01      0.5729753385E+01
          0                 3           2             4    7     1       0.2717740236E-01       4    7    1         0.1460299045E+01      0.2314920908E+01
          0                 4           2             4    7     1       0.1099361193E-01       4    7    1         0.5905379443E+00      0.9385276120E+00
          0                 5           2             4    6     1       0.4486786908E-02       4    7    1         0.2388966747E+00      0.3805724536E+00
          0                 6           2             4    6     1       0.1835611019E-02       4    6    1         0.9772542322E-01      0.1543445841E+00
          0                 7           2             4    6     1       0.7506232482E-03       4    6    1         0.3997701859E-01      0.6260424485E-01
          0                 8           2             4    6     1       0.3068128588E-03       4    6    1         0.1634603180E-01      0.2539614470E-01
          0                 9           2             4    6     1       0.1253568961E-03       4    6    1         0.6680779446E-02      0.1030334480E-01
          0                10           1             4    6     1       0.5119858632E-04       4    6    1         0.2729402169E-02      0.4180519124E-02

    ------------------------------------------------
       NWT REQUIRED           10 OUTER ITERATIONS 
       AND A TOTAL OF         19 INNER ITERATIONS.
    ------------------------------------------------

 NO OUTPUT CONTROL FOR STRESS PERIOD   47   TIME STEP   16
 
 SOLVING FOR HEAD 
                                                   Max.-Head-Change                         Max.-Flux-Residual
  Residual-Control   Outer-Iter.   Inner-Iter.     Column Row Layer    Maximum-Head-Change  Column Row Layer    Maximum-Flux-Residual          L2-NORM 
          0                 1           2             4    7     1       0.1557796305E+00       4    7    1         0.8378899724E+01      0.1429510291E+02
          0                 2           2             4    7     1       0.6301377834E-01       4    7    1         0.3384138841E+01      0.5418545744E+01
          0                 3           2             4    6     1       0.2570939876E-01       4    7    1         0.1369357976E+01      0.2188229314E+01
          0                 4           2             4    6     1       0.1052003135E-01       4    6    1         0.5599996169E+00      0.8873682624E+00
          0                 5           2             4    6     1       0.4302599366E-02       4    6    1         0.2291189482E+00      0.3598825317E+00
          0                 6           2             4    6     1       0.1758928365E-02       4    6    1         0.9369903140E-01      0.1459742527E+00
          0                 7           2             4    6     1       0.7187572369E-03       4    6    1         0.3830136768E-01      0.5921630355E-01
          0                 8           2             4    6     1       0.2935929091E-03       4    6    1         0.1564994875E-01      0.2402429662E-01
          0                 9           2             4    6     1       0.1198807936E-03       4    6    1         0.6392094202E-02      0.9747648446E-02
          0                10           1             4    6     1       0.4893335324E-04       4    6    1         0.2609854683E-02      0.3955347384E-02

    ------------------------------------------------
       NWT REQUIRED           10 OUTER ITERATIONS 
       AND A TOTAL OF         19 INNER ITERATIONS.
    ------------------------------------------------

 NO OUTPUT CONTROL FOR STRESS PERIOD   47   TIME STEP   17
 
 SOLVING FOR HEAD 
                                                   Max.-Head-Change                         Max.-Flux-Residual
  Residual-Control   Outer-Iter.   Inner-Iter.     Column Row Layer    Maximum-Head-Change  Column Row Layer    Maximum-Flux-Residual          L2-NORM 
          0                 1           2             4    6     1       0.1443729825E+00       4    6    1         0.7801499654E+01      0.9835162837E+01
          0                 2           2             4    6     1       0.5735296957E-01       4    6    1         0.3132771642E+01      0.3164754683E+01
          0                 3           2             4    6     1       0.2275137265E-01       4    6    1         0.1241234161E+01      0.1241673925E+01
          0                 4           2             4    6     1       0.9024337767E-02       4    6    1         0.4924636535E+00      0.4924838253E+00
          0                 5           2             4    6     1       0.3579483182E-02       4    6    1         0.1953303950E+00      0.1953382853E+00
          0                 6           2             4    6     1       0.1419793719E-02       4    6    1         0.7747759236E-01      0.7748069669E-01
          0                 7           2             4    6     1       0.5631579444E-03       4    6    1         0.3073131012E-01      0.3073254235E-01
          0                 8           2             4    6     1       0.2233753253E-03       4    6    1         0.1218950630E-01      0.1218999497E-01
          0                 9           1             4    6     1       0.8860131912E-04       4    6    1         0.4834940427E-02      0.4835134235E-02

    ------------------------------------------------
       NWT REQUIRED            9 OUTER ITERATIONS 
       AND A TOTAL OF         17 INNER ITERATIONS.
    ------------------------------------------------

 NO OUTPUT CONTROL FOR STRESS PERIOD   47   TIME STEP   18
 
 SOLVING FOR HEAD 
                                                   Max.-Head-Change                         Max.-Flux-Residual
  Residual-Control   Outer-Iter.   Inner-Iter.     Column Row Layer    Maximum-Head-Change  Column Row Layer    Maximum-Flux-Residual          L2-NORM 
          0                 1           2             4    6     1       0.1312379959E+00       4    6    1         0.7195529716E+01      0.9594388008E+01
          0                 2           2             4    6     1       0.5239852634E-01       4    6    1         0.2852959680E+01      0.2908118566E+01
          0                 3           2             4    6     1       0.2082042689E-01       4    6    1         0.1134732241E+01      0.1135391477E+01
          0                 4           2             4    6     1       0.8272961319E-02       4    6    1         0.4507935410E+00      0.4507999136E+00
          0                 5           2             4    6     1       0.3287250052E-02       4    6    1         0.1791253059E+00      0.1791265558E+00
          0                 6           2             4    6     1       0.1306184834E-02       4    6    1         0.7117508494E-01      0.7117558213E-01
          0                 7           2             4    6     1       0.5190110360E-03       4    6    1         0.2828136451E-01      0.2828156124E-01
          0                 8           2             4    6     1       0.2062284471E-03       4    6    1         0.1123756822E-01      0.1123764643E-01
          0                 9           1             4    6     1       0.8194464171E-04       4    6    1         0.4465235494E-02      0.4465266556E-02

    ------------------------------------------------
       NWT REQUIRED            9 OUTER ITERATIONS 
       AND A TOTAL OF         17 INNER ITERATIONS.
    ------------------------------------------------

 NO OUTPUT CONTROL FOR STRESS PERIOD   47   TIME STEP   19
 
 SOLVING FOR HEAD 
                                                   Max.-Head-Change                         Max.-Flux-Residual
  Residual-Control   Outer-Iter.   Inner-Iter.     Column Row Layer    Maximum-Head-Change  Column Row Layer    Maximum-Flux-Residual          L2-NORM 
          0                 1           2             4    6     1       0.1200330902E+00       4    6    1         0.6556939809E+01      0.8843582628E+01
          0                 2           2             4    6     1       0.4769193231E-01       4    6    1         0.2597502236E+01      0.2652099113E+01
          0                 3           2             4    6     1       0.1894922108E-01       4    6    1         0.1032748629E+01      0.1033406481E+01
          0                 4           2             4    6     1       0.7529022056E-02       4    6    1         0.4102769136E+00      0.4102826510E+00
          0                 5           2             4    6     1       0.2991480130E-02       4    6    1         0.1630156724E+00      0.1630168228E+00
          0                 6           2             4    6     1       0.1188594760E-02       4    6    1         0.6477039148E-01      0.6477084432E-01
          0                 7           2             4    6     1       0.4722604255E-03       4    6    1         0.2573502621E-01      0.2573520563E-01
          0                 8           2             4    6     1       0.1876416824E-03       4    6    1         0.1022521348E-01      0.1022528481E-01
          0                 9           1             4    6     1       0.7455505429E-04       4    6    1         0.4062750885E-02      0.4062779213E-02

    ------------------------------------------------
       NWT REQUIRED            9 OUTER ITERATIONS 
       AND A TOTAL OF         17 INNER ITERATIONS.
    ------------------------------------------------

 NO OUTPUT CONTROL FOR STRESS PERIOD   47   TIME STEP   20
 
 SOLVING FOR HEAD 
                                                   Max.-Head-Change                         Max.-Flux-Residual
  Residual-Control   Outer-Iter.   Inner-Iter.     Column Row Layer    Maximum-Head-Change  Column Row Layer    Maximum-Flux-Residual          L2-NORM 
          0                 1           2             4    6     1       0.1097242482E+00       4    6    1         0.5985425044E+01      0.8184881086E+01
          0                 2           2             4    6     1       0.4359386421E-01       4    6    1         0.2375268987E+01      0.2428092409E+01
          0                 3           2             4    6     1       0.1732008182E-01       4    6    1         0.9439372382E+00      0.9445791108E+00
          0                 4           2             4    6     1       0.6881375316E-02       4    6    1         0.3750028800E+00      0.3750079095E+00
          0                 5           2             4    6     1       0.2734014824E-02       4    6    1         0.1489914261E+00      0.1489924914E+00
          0                 6           2             4    6     1       0.1086242045E-02       4    6    1         0.5919525176E-01      0.5919566573E-01
          0                 7           2             4    6     1       0.4315711470E-03       4    6    1         0.2351868045E-01      0.2351884473E-01
          0                 8           2             4    6     1       0.1714660786E-03       4    6    1         0.9344127873E-02      0.9344193197E-02
          0                 9           1             4    6     1       0.6812461132E-04       4    6    1         0.3712484304E-02      0.3712510237E-02

    ------------------------------------------------
       NWT REQUIRED            9 OUTER ITERATIONS 
       AND A TOTAL OF         17 INNER ITERATIONS.
    ------------------------------------------------

 NO OUTPUT CONTROL FOR STRESS PERIOD   47   TIME STEP   21
 
 SOLVING FOR HEAD 
                                                   Max.-Head-Change                         Max.-Flux-Residual
  Residual-Control   Outer-Iter.   Inner-Iter.     Column Row Layer    Maximum-Head-Change  Column Row Layer    Maximum-Flux-Residual          L2-NORM 
          0                 1           2             4    6     1       0.1004464841E+00       4    6    1         0.5471209875E+01      0.7605195773E+01
          0                 2           2             4    6     1       0.3990599340E-01       4    6    1         0.2175247079E+01      0.2226980420E+01
          0                 3           2             4    6     1       0.1585414599E-01       4    6    1         0.8640180619E+00      0.8646519240E+00
          0                 4           2             4    6     1       0.6298661742E-02       4    6    1         0.3432630354E+00      0.3432674676E+00
          0                 5           2             4    6     1       0.2502384282E-02       4    6    1         0.1363734874E+00      0.1363744758E+00
          0                 6           2             4    6     1       0.9941681249E-03       4    6    1         0.5417962957E-01      0.5418000853E-01
          0                 7           2             4    6     1       0.3949714561E-03       4    6    1         0.2152494884E-01      0.2152509947E-01
          0                 8           2             4    6     1       0.1569175814E-03       4    6    1         0.8551612944E-02      0.8551672810E-02
          0                 9           1             4    6     1       0.6234153740E-04       4    6    1         0.3397456996E-02      0.3397480846E-02

    ------------------------------------------------
       NWT REQUIRED            9 OUTER ITERATIONS 
       AND A TOTAL OF         17 INNER ITERATIONS.
    ------------------------------------------------

 NO OUTPUT CONTROL FOR STRESS PERIOD   47   TIME STEP   22
 
 SOLVING FOR HEAD 
                                                   Max.-Head-Change                         Max.-Flux-Residual
  Residual-Control   Outer-Iter.   Inner-Iter.     Column Row Layer    Maximum-Head-Change  Column Row Layer    Maximum-Flux-Residual          L2-NORM 
          0                 1           2             4    6     1       0.9209466417E-01       4    6    1         0.5008451774E+01      0.7095720174E+01
          0                 2           2             4    6     1       0.3658634760E-01       4    6    1         0.1995167498E+01      0.2046416508E+01
          0                 3           2             4    6     1       0.1432356716E-01       4    6    1         0.7808951558E+00      0.7821569469E+00
          0                 4           2             4    6     1       0.5901589354E-02       4    6    1         0.3213005049E+00      0.3224073987E+00
          0                 5           2             4    6     1       0.2344534768E-02       4    6    1         0.1277752280E+00      0.1277802272E+00
          0                 6           2             4    6     1       0.9314175745E-03       4    6    1         0.5076002938E-01      0.5076065765E-01
          0                 7           2             4    6     1       0.3700259777E-03       4    6    1         0.2016554762E-01      0.2016577370E-01
          0                 8           2             4    6     1       0.1470009081E-03       4    6    1         0.8011205564E-02      0.8011295031E-02
          0                 9           1             4    6     1       0.5839932478E-04       4    6    1         0.3182626722E-02      0.3182662249E-02

    ------------------------------------------------
       NWT REQUIRED            9 OUTER ITERATIONS 
       AND A TOTAL OF         17 INNER ITERATIONS.
    ------------------------------------------------

 NO OUTPUT CONTROL FOR STRESS PERIOD   47   TIME STEP   23
 
 SOLVING FOR HEAD 
                                                   Max.-Head-Change                         Max.-Flux-Residual
  Residual-Control   Outer-Iter.   Inner-Iter.     Column Row Layer    Maximum-Head-Change  Column Row Layer    Maximum-Flux-Residual          L2-NORM 
          0                 1           2             4    6     1       0.6181638961E-01       4    6    1         0.3351500577E+01      0.5860811911E+01
          0                 2           2             4    5     1      -0.4924159777E-02       4    5    1        -0.2744526716E+00      0.4401192845E+00
          0                 3           2             4    5     1       0.3411286638E-03       4    5    1         0.1925032953E-01      0.3848184237E-01
          0                 4           2             4    6     1      -0.1062507211E+00       5    7    1        -0.5788560182E+01      0.1417858166E+02
          0                 5           2             4    7     1       0.1697318768E-01       4    7    1         0.9734575450E+00      0.2093469660E+01
          0                 6           2             5    8     1      -0.6099933063E-03       5    8    1        -0.3645102530E-01      0.5623225024E-01
          0                 7           1             4    6     1       0.4952190715E-04       4    6    1         0.2856151288E-02      0.2913446424E-02

    ------------------------------------------------
       NWT REQUIRED            7 OUTER ITERATIONS 
       AND A TOTAL OF         13 INNER ITERATIONS.
    ------------------------------------------------

 NO OUTPUT CONTROL FOR STRESS PERIOD   47   TIME STEP   24
 
 SOLVING FOR HEAD 
                                                   Max.-Head-Change                         Max.-Flux-Residual
  Residual-Control   Outer-Iter.   Inner-Iter.     Column Row Layer    Maximum-Head-Change  Column Row Layer    Maximum-Flux-Residual          L2-NORM 
          0                 1           2             4    6     1      -0.9133545315E-01       4    6    1        -0.4999940597E+01      0.6718418500E+01
          0                 2           2             4    6     1       0.8876127764E-02       4    6    1         0.4995159107E+00      0.6714783898E+00
          0                 3           2             4    6     1      -0.6044401895E-03       4    6    1        -0.3496671811E-01      0.4700400503E-01
          0                 4           1             4    6     1       0.2405119854E-04       4    6    1         0.1430138033E-02      0.1922467495E-02

    ------------------------------------------------
       NWT REQUIRED            4 OUTER ITERATIONS 
       AND A TOTAL OF          7 INNER ITERATIONS.
    ------------------------------------------------

 NO OUTPUT CONTROL FOR STRESS PERIOD   47   TIME STEP   25
 
 SOLVING FOR HEAD 
                                                   Max.-Head-Change                         Max.-Flux-Residual
  Residual-Control   Outer-Iter.   Inner-Iter.     Column Row Layer    Maximum-Head-Change  Column Row Layer    Maximum-Flux-Residual          L2-NORM 
          0                 1           2             4    6     1      -0.8672765669E-01       4    6    1        -0.4746164286E+01      0.6392960828E+01
          0                 2           2             4    6     1       0.8435453913E-02       4    6    1         0.4745604982E+00      0.6070216778E+00
          0                 3           2             4    6     1      -0.5744318951E-03       4    6    1        -0.3321977830E-01      0.4246703749E-01
          0                 4           1             4    6     1       0.2285709829E-04       4    6    1         0.1358688379E-02      0.1738852946E-02

    ------------------------------------------------
       NWT REQUIRED            4 OUTER ITERATIONS 
       AND A TOTAL OF          7 INNER ITERATIONS.
    ------------------------------------------------

 NO OUTPUT CONTROL FOR STRESS PERIOD   47   TIME STEP   26
 
 SOLVING FOR HEAD 
                                                   Max.-Head-Change                         Max.-Flux-Residual
  Residual-Control   Outer-Iter.   Inner-Iter.     Column Row Layer    Maximum-Head-Change  Column Row Layer    Maximum-Flux-Residual          L2-NORM 
          0                 1           2             4    6     1      -0.8237136118E-01       4    6    1        -0.4506340575E+01      0.6084781163E+01
          0                 2           2             4    6     1       0.8011802734E-02       4    6    1         0.4505838915E+00      0.5795672529E+00
          0                 3           2             4    6     1      -0.5455800139E-03       4    6    1        -0.3154136057E-01      0.4039378428E-01
          0                 4           1             4    6     1       0.2170913716E-04       4    6    1         0.1290041249E-02      0.1651480185E-02

    ------------------------------------------------
       NWT REQUIRED            4 OUTER ITERATIONS 
       AND A TOTAL OF          7 INNER ITERATIONS.
    ------------------------------------------------

 NO OUTPUT CONTROL FOR STRESS PERIOD   47   TIME STEP   27
 
 SOLVING FOR HEAD 
                                                   Max.-Head-Change                         Max.-Flux-Residual
  Residual-Control   Outer-Iter.   Inner-Iter.     Column Row Layer    Maximum-Head-Change  Column Row Layer    Maximum-Flux-Residual          L2-NORM 
          0                 1           2             4    6     1      -0.7825802467E-01       4    6    1        -0.4279983282E+01      0.5793570156E+01
          0                 2           2             4    6     1       0.7611759288E-02       4    6    1         0.4279533014E+00      0.5522089379E+00
          0                 3           2             4    6     1      -0.5183378733E-03       4    6    1        -0.2995716997E-01      0.3848776163E-01
          0                 4           1             4    6     1       0.2062514863E-04       4    6    1         0.1225247967E-02      0.1573567456E-02

    ------------------------------------------------
       NWT REQUIRED            4 OUTER ITERATIONS 
       AND A TOTAL OF          7 INNER ITERATIONS.
    ------------------------------------------------

 NO OUTPUT CONTROL FOR STRESS PERIOD   47   TIME STEP   28
 
 SOLVING FOR HEAD 
                                                   Max.-Head-Change                         Max.-Flux-Residual
  Residual-Control   Outer-Iter.   Inner-Iter.     Column Row Layer    Maximum-Head-Change  Column Row Layer    Maximum-Flux-Residual          L2-NORM 
          0                 1           2             4    6     1      -0.7437251177E-01       4    6    1        -0.4066247094E+01      0.5520048395E+01
          0                 2           2             4    6     1       0.7233861343E-02       4    6    1         0.4065842682E+00      0.5262986963E+00
          0                 3           2             4    6     1      -0.4926038331E-03       4    6    1        -0.2846129364E-01      0.3668239240E-01
          0                 4           1             4    6     1       0.1960116876E-04       4    6    1         0.1164066764E-02      0.1499768957E-02

    ------------------------------------------------
       NWT REQUIRED            4 OUTER ITERATIONS 
       AND A TOTAL OF          7 INNER ITERATIONS.
    ------------------------------------------------

 NO OUTPUT CONTROL FOR STRESS PERIOD   47   TIME STEP   29
 
 SOLVING FOR HEAD 
                                                   Max.-Head-Change                         Max.-Flux-Residual
  Residual-Control   Outer-Iter.   Inner-Iter.     Column Row Layer    Maximum-Head-Change  Column Row Layer    Maximum-Flux-Residual          L2-NORM 
          0                 1           2             4    6     1      -0.7070102823E-01       4    6    1        -0.3864361316E+01      0.5262910100E+01
          0                 2           2             4    6     1       0.6876791094E-02       4    6    1         0.3863997849E+00      0.5022580810E+00
          0                 3           2             4    6     1      -0.4682881467E-03       4    6    1        -0.2704834045E-01      0.3500747278E-01
          0                 4           1             4    6     1       0.1863362604E-04       4    6    1         0.1106277063E-02      0.1431299133E-02

    ------------------------------------------------
       NWT REQUIRED            4 OUTER ITERATIONS 
       AND A TOTAL OF          7 INNER ITERATIONS.
    ------------------------------------------------

 NO OUTPUT CONTROL FOR STRESS PERIOD   47   TIME STEP   30



 STREAM LISTING     PERIOD     47   STEP       30

 LAYER ROW COL. STREAM  RCH.  FLOW INTO     FLOW TO   FLOW OUT OF   OVRLND.     DIRECT     STREAM       STREAM     STREAM     STREAM   STREAMBED  STREAMBED
                SEG.NO.  NO.  STRM. RCH.    AQUIFER    STRM. RCH.    RUNOFF     PRECIP       ET          HEAD       DEPTH      WIDTH   CONDCTNC.   GRADIENT

   1    1    1     1     1    7.9710E+00  1.2901E-01   7.8420E+00  0.000E+00  0.000E+00  0.000E+00  1.09388E+03  8.328E-01  7.480E+00  3.366E-02  1.278E+00
   1    2    2     1     2    7.8420E+00  1.9811E-01   7.6439E+00  0.000E+00  0.000E+00  0.000E+00  1.08889E+03  8.271E-01  7.395E+00  5.177E-02  1.276E+00
   1    3    3     1     3    7.6439E+00  1.6733E-01   7.4765E+00  0.000E+00  0.000E+00  0.000E+00  1.08324E+03  8.206E-01  7.300E+00  4.380E-02  1.274E+00
   1    3    4     1     4    7.4765E+00  1.5276E-01   7.3238E+00  0.000E+00  0.000E+00  0.000E+00  1.07822E+03  8.148E-01  7.215E+00  4.004E-02  1.272E+00
   1    4    5     2     1    5.3238E+00  2.7067E-01   5.0531E+00  0.000E+00  0.000E+00  0.000E+00  1.07240E+03  4.701E-01  1.200E+01  7.800E-02  1.157E+00
   1    5    6     2     2    5.0531E+00  2.0742E-01   4.8457E+00  0.000E+00  0.000E+00  0.000E+00  1.06697E+03  4.570E-01  1.200E+01  6.000E-02  1.152E+00
   1    6    6     2     3    4.8457E+00  2.0672E-01   4.6390E+00  0.000E+00  0.000E+00  0.000E+00  1.06224E+03  4.454E-01  1.200E+01  6.000E-02  1.148E+00
   1    7    6     2     4    4.6390E+00  2.0602E-01   4.4330E+00  0.000E+00  0.000E+00  0.000E+00  1.05751E+03  4.337E-01  1.200E+01  6.000E-02  1.145E+00
   1    8    6     2     5    4.4330E+00  2.0530E-01   4.2276E+00  0.000E+00  0.000E+00  0.000E+00  1.05278E+03  4.218E-01  1.200E+01  6.000E-02  1.141E+00
   1    3    5     3     1    2.0000E+00  2.8252E-01   1.7175E+00  0.000E+00  0.000E+00  0.000E+00  1.07555E+03  1.909E+00  9.636E+00  7.227E-02  1.955E+00
   1    3    6     3     2    1.7175E+00  2.4905E-01   1.4684E+00  0.000E+00  0.000E+00  0.000E+00  1.07264E+03  1.727E+00  8.909E+00  6.682E-02  1.864E+00
   1    3    7     3     3    1.4684E+00  1.9718E-01   1.2712E+00  0.000E+00  0.000E+00  0.000E+00  1.06987E+03  1.555E+00  8.218E+00  5.547E-02  1.777E+00
   1    4    8     3     4    1.2712E+00  2.2567E-01   1.0456E+00  0.000E+00  0.000E+00  0.000E+00  1.06682E+03  1.364E+00  7.455E+00  6.709E-02  1.682E+00
   1    5    8     3     5    1.0456E+00  1.5790E-01   8.8768E-01  0.000E+00  0.000E+00  0.000E+00  1.06362E+03  1.164E+00  6.655E+00  4.991E-02  1.582E+00
   1    6    8     3     6    8.8768E-01  5.5980E-02   8.3170E-01  0.000E+00  0.000E+00  0.000E+00  1.06158E+03  1.036E+00  6.145E+00  1.844E-02  1.518E+00
   1    5   10     4     1    1.0000E+01  9.0919E-02   9.9091E+00  0.000E+00  0.000E+00  0.000E+00  1.07836E+03  6.368E-01  1.000E+01  2.500E-02  1.212E+00
   1    5    9     4     2    9.9091E+00  1.8158E-01   9.7275E+00  0.000E+00  0.000E+00  0.000E+00  1.07154E+03  6.315E-01  1.000E+01  5.000E-02  1.211E+00
   1    6    8     4     3    9.7275E+00  1.2689E-01   9.6006E+00  0.000E+00  0.000E+00  0.000E+00  1.06381E+03  6.256E-01  1.000E+01  3.500E-02  1.209E+00
   1    6    8     5     1    1.0432E+01  2.2686E-01   1.0205E+01  0.000E+00  0.000E+00  0.000E+00  1.05868E+03  6.790E-01  1.542E+01  6.166E-02  1.226E+00
   1    7    7     5     2    1.0205E+01  2.7894E-01   9.9265E+00  0.000E+00  0.000E+00  0.000E+00  1.05417E+03  6.732E-01  1.519E+01  7.594E-02  1.224E+00
   1    8    7     5     3    9.9265E+00  1.9221E-01   9.7343E+00  0.000E+00  0.000E+00  0.000E+00  1.04992E+03  6.676E-01  1.497E+01  5.241E-02  1.223E+00
   1    8    6     5     4    9.7343E+00  1.3577E-01   9.5985E+00  0.000E+00  0.000E+00  0.000E+00  1.04691E+03  6.637E-01  1.482E+01  3.706E-02  1.221E+00
   1    9    6     6     1    1.3826E+01  2.3109E-01   1.3595E+01  0.000E+00  0.000E+00  0.000E+00  1.04358E+03  8.515E-01  1.200E+01  6.000E-02  1.284E+00
   1   10    7     6     2    1.3595E+01  2.3057E-01   1.3365E+01  0.000E+00  0.000E+00  0.000E+00  1.03902E+03  8.429E-01  1.200E+01  6.000E-02  1.281E+00
   1   11    7     6     3    1.3365E+01  2.3005E-01   1.3134E+01  0.000E+00  0.000E+00  0.000E+00  1.03447E+03  8.342E-01  1.200E+01  6.000E-02  1.278E+00
   1   12    7     6     4    1.3134E+01  2.2953E-01   1.2905E+01  0.000E+00  0.000E+00  0.000E+00  1.02992E+03  8.255E-01  1.200E+01  6.000E-02  1.275E+00
   1   13    7     6     5    1.2905E+01  6.3491E-03   1.2899E+01  0.000E+00  0.000E+00  0.000E+00  1.02673E+03  8.210E-01  1.200E+01  2.400E-02  8.818E-02
   1   14    9     7     1    1.5000E+02  1.4136E+00   1.4859E+02  0.000E+00  0.000E+00  0.000E+00  1.03987E+03  2.288E+00  5.529E+01  5.593E-01  8.425E-01
   1   13    8     7     2    1.4859E+02  2.0480E+00   1.4654E+02  0.000E+00  0.000E+00  0.000E+00  1.03478E+03  2.278E+00  5.525E+01  6.147E-01  1.111E+00
   1   13    7     7     3    1.4654E+02  1.7988E+00   1.4474E+02  0.000E+00  0.000E+00  0.000E+00  1.02969E+03  2.268E+00  5.521E+01  5.583E-01  1.074E+00
   1   13    6     8     1    1.5764E+02  1.1628E+00   1.5648E+02  0.000E+00  0.000E+00  0.000E+00  1.02474E+03  2.866E+00  4.155E+01  4.235E-01  9.153E-01
   1   13    5     8     2    1.5648E+02  4.0025E-01   1.5608E+02  0.000E+00  0.000E+00  0.000E+00  1.01849E+03  2.860E+00  4.148E+01  4.227E-01  3.157E-01
   1   13    4     8     3    1.5608E+02 -1.6701E+00   1.5775E+02  0.000E+00  0.000E+00  0.000E+00  1.01224E+03  2.865E+00  4.154E+01  4.233E+00 -1.315E-01
   1   13    3     8     4    1.5775E+02 -3.2548E+00   1.6100E+02  0.000E+00  0.000E+00  0.000E+00  1.00601E+03  2.882E+00  4.178E+01  4.258E+00 -2.548E-01
   1   13    2     8     5    1.6100E+02 -2.4686E+00   1.6347E+02  0.000E+00  0.000E+00  0.000E+00  9.99776E+02  2.901E+00  4.206E+01  4.286E+00 -1.920E-01
   1   13    1     8     6    1.6347E+02 -1.9446E+00   1.6541E+02  0.000E+00  0.000E+00  0.000E+00  9.94791E+02  2.916E+00  4.228E+01  2.585E+00 -2.508E-01
   1    8    6     9     1    0.0000E+00  0.0000E+00   0.0000E+00  0.000E+00  0.000E+00  0.000E+00  1.07875E+03  0.000E+00  4.000E+00  0.000E+00  1.000E+00
   1    8    5     9     2    0.0000E+00  0.0000E+00   0.0000E+00  0.000E+00  0.000E+00  0.000E+00  1.07825E+03  0.000E+00  4.000E+00  0.000E+00  1.000E+00





UNSATURATED ZONE PACKAGE VOLUMETRIC BUDGET FOR  TIME STEP    30 STRESS PERIOD   47
  ------------------------------------------------------------------------------



     CUMULATIVE VOLUMES      L**3       RATES FOR THIS TIME STEP      L**3/T
     ------------------                 ------------------------

           IN:                                      IN:
           ---                                      ---
        INFILTRATION =  7035508765.5452          INFILTRATION =           0.8475

          OUT:                                     OUT:
          ----                                     ----
              UZF ET =  1706711164.7442                UZF ET =           1.5675
        UZF RECHARGE =  4991007200.5060          UZF RECHARGE =           0.2227

            IN - OUT =   337790400.2950              IN - OUT =          -0.9427

          STORAGE:                                 STORAGE:
          --------                                 --------
      STORAGE CHANGE =   337936973.6849        STORAGE CHANGE =          -0.9427

 PERCENT DISCREPANCY IS DIFFERENCE BETWEEN IN-OUT MINUS CHANGE IN STORAGE
 DIVIDED BY THE AVERAGE OF IN AND OUT TIMES 100

 PERCENT DISCREPANCY =          -0.00     PERCENT DISCREPANCY =           0.00






1
  VOLUMETRIC BUDGET FOR AGRICULTURAL FIELDS AT  END OF TIME STEP   30, STRESS PERIOD  47
  ------------------------------------------------------------------------------

     CUMULATIVE VOLUMES      L**3       RATES FOR THIS TIME STEP      L**3/T
     ------------------                 ------------------------

           IN:                                      IN:
           ---                                      ---
               AG WELLS  =  5977688576.0000                 AG WELLS  =           0.0000
      DIVERSION SEGMENTS =   955233536.0000        DIVERSION SEGMENTS =           0.0000
           GW IRRIGATION =           0.0000             GW IRRIGATION =           0.0000
           SW IRRIGATION =           0.0000             SW IRRIGATION =           0.0000
        SYSTEM LOSSES GW =           0.0000          SYSTEM LOSSES GW =           0.0000
        SYSTEM LOSSES SW =           0.0000          SYSTEM LOSSES SW =           0.0000

                TOTAL IN =  6932922368.0000                  TOTAL IN =           0.0000

          OUT:                                     OUT:
          ----                                     ----
               AG WELLS  =           0.0000                 AG WELLS  =           0.0000
      DIVERSION SEGMENTS =           0.0000        DIVERSION SEGMENTS =           0.0000
           GW IRRIGATION =  5977688576.0000             GW IRRIGATION =           0.0000
           SW IRRIGATION =   955250304.0000             SW IRRIGATION =           0.0000
        SYSTEM LOSSES GW =           0.0000          SYSTEM LOSSES GW =           0.0000
        SYSTEM LOSSES SW =           0.0000          SYSTEM LOSSES SW =           0.0000

               TOTAL OUT =  6932938752.0000                 TOTAL OUT =           0.0000

                IN - OUT =      -16384.0000                  IN - OUT =           0.0000

     PERCENT DISCREPANCY =          -0.00         PERCENT DISCREPANCY =           0.00



1
  VOLUMETRIC BUDGET FOR ENTIRE MODEL AT END OF TIME STEP   30, STRESS PERIOD  47
  ------------------------------------------------------------------------------

     CUMULATIVE VOLUMES      L**3       RATES FOR THIS TIME STEP      L**3/T
     ------------------                 ------------------------

           IN:                                      IN:
           ---                                      ---
             STORAGE     =  5979693056.0000               STORAGE     =           8.0782
       CONSTANT HEAD     =           0.0000         CONSTANT HEAD     =           0.0000
     HEAD DEP BOUNDS     =    35027424.0000       HEAD DEP BOUNDS     =           0.2911
      STREAM LEAKAGE     =  1468730880.0000        STREAM LEAKAGE     =          11.8958
        UZF RECHARGE     =  4991004160.0000          UZF RECHARGE     =           0.2227
               GW ET     =           0.0000                 GW ET     =           0.0000
     SURFACE LEAKAGE     =           0.0000       SURFACE LEAKAGE     =           0.0000
           AG WELLS      =           0.0000             AG WELLS      =           0.0000

                TOTAL IN = 12474456064.0000                  TOTAL IN =          20.4878

          OUT:                                     OUT:
          ----                                     ----
             STORAGE     =  5297099776.0000               STORAGE     =          10.8631
       CONSTANT HEAD     =           0.0000         CONSTANT HEAD     =           0.0000
     HEAD DEP BOUNDS     =    34777788.0000       HEAD DEP BOUNDS     =           0.2866
      STREAM LEAKAGE     =  1164746112.0000        STREAM LEAKAGE     =           9.3381
        UZF RECHARGE     =           0.0000          UZF RECHARGE     =           0.0000
               GW ET     =           0.0000                 GW ET     =           0.0000
     SURFACE LEAKAGE     =           0.0000       SURFACE LEAKAGE     =           0.0000
           AG WELLS      =  5977688576.0000             AG WELLS      =           0.0000

               TOTAL OUT = 12474312704.0000                 TOTAL OUT =          20.4878

                IN - OUT =      143360.0000                  IN - OUT =       9.5367E-06

     PERCENT DISCREPANCY =           0.00         PERCENT DISCREPANCY =           0.00






         TIME SUMMARY AT END OF TIME STEP   30 IN STRESS PERIOD   47
                    SECONDS     MINUTES      HOURS       DAYS        YEARS
                    -----------------------------------------------------------
   TIME STEP LENGTH  87667.      1461.1      24.352      1.0147     2.77799E-03
 STRESS PERIOD TIME 2.63000E+06  43833.      730.56      30.440     8.33397E-02
         TOTAL TIME 1.21065E+08 2.01775E+06  33629.      1401.2      3.8363    
1
1
                            STRESS PERIOD NO.   48, LENGTH =   2630000.    
                            -----------------------------------------------

                              NUMBER OF TIME STEPS =    30

                               MULTIPLIER FOR DELT =     1.000

                            INITIAL TIME STEP SIZE =   87666.66    

 REUSING NON-PARAMETER GHB CELLS FROM LAST STRESS PERIOD

      2 GHB CELLS

 REUSING STREAM SEGMENT DATA FROM LAST STRESS PERIOD



            AREAL INFILTRATION RATE
 READING ON UNIT   19 WITH FORMAT: (FREE)              

            1           2           3           4           5           6           7           8           9          10
 ........................................................................................................................
   1   1.0000E-10  2.0000E-10   0.000       0.000       0.000       0.000       0.000       0.000       0.000       0.000    
   2   2.0000E-10  1.0000E-10  2.0000E-10   0.000       0.000      8.0000E-10  8.0000E-10  5.0000E-10   0.000       0.000    
   3    0.000      5.0000E-10  1.0000E-10  1.0000E-10  8.0000E-10  8.0000E-10  5.0000E-10  5.0000E-10   0.000       0.000    
   4   8.0000E-10  5.0000E-10  1.0000E-10  1.0000E-10  1.0000E-10  1.0000E-10  1.0000E-10  1.0000E-10  2.0000E-10   0.000    
   5   8.0000E-10  5.0000E-10  1.0000E-10  1.0000E-10  1.0000E-10  1.0000E-10  1.0000E-10  1.0000E-10  1.0000E-10  1.0000E-10
   6   8.0000E-10  5.0000E-10  5.0000E-10  2.0000E-10  2.0000E-10  1.0000E-10  1.0000E-10  1.0000E-10  1.0000E-10  5.0000E-10
   7   8.0000E-10  5.0000E-10  5.0000E-10  2.0000E-10  2.0000E-10  1.0000E-10  1.0000E-10  2.0000E-10  2.0000E-10   0.000    
   8    0.000      5.0000E-10  5.0000E-10  2.0000E-10  2.0000E-10  1.0000E-10  1.0000E-10  2.0000E-10  5.0000E-10   0.000    
   9    0.000      5.0000E-10  5.0000E-10  2.0000E-10  2.0000E-10  1.0000E-10  1.0000E-10  2.0000E-10  5.0000E-10   0.000    
  10    0.000      5.0000E-10  5.0000E-10  2.0000E-10  2.0000E-10  1.0000E-10  1.0000E-10  2.0000E-10  5.0000E-10  8.0000E-10
  11    0.000      1.0000E-10  1.0000E-10  1.0000E-10  1.0000E-10  1.0000E-10  1.0000E-10  2.0000E-10  5.0000E-10   0.000    
  12   1.0000E-10  1.0000E-10  1.0000E-10  1.0000E-10  1.0000E-10  1.0000E-10  1.0000E-10  1.0000E-10  2.0000E-10   0.000    
  13   1.0000E-10  1.0000E-10  2.0000E-10  2.0000E-10  2.0000E-10  2.0000E-10  2.0000E-10  1.0000E-10  1.0000E-10   0.000    
  14    0.000      2.0000E-10  5.0000E-10  5.0000E-10  5.0000E-10  5.0000E-10  5.0000E-10  2.0000E-10  1.0000E-10   0.000    
  15    0.000       0.000      8.0000E-10  8.0000E-10  8.0000E-10  8.0000E-10   0.000       0.000       0.000       0.000    

                  ET RATE =  5.000000E-10

 USING ET EXTINCTION DEPTH FROM PREVIOUS STRESS PERIOD. CURRENT PERIOD IS:      48

 USING EXTINCTION WATER CONTENT FROM PREVIOUS STRESS PERIOD. CURRENT PERIOD IS:      48

 USING AIR ENTRY PRESSURE FROM PREVIOUS STRESS PERIOD. CURRENT PERIOD IS:      48

 USING ROOT PRESSURE HEAD FROM PREVIOUS STRESS PERIOD. CURRENT PERIOD IS:      48

 USING ROOT ACTIVITY FROM PREVIOUS STRESS PERIOD. CURRENT PERIOD IS:      48

 PROCESSING AG STRESS PERIOD DATA

 READING AG STRESS PERIOD DATA

 READING IRRIGATION SEGMENT

 READING IRRIGATION WELL

 READING SUPPLEMENTAL WELL

 END PROCESSING AG STRESS PERIOD DATA OPTIONS
 
 SOLVING FOR HEAD 
                                                   Max.-Head-Change                         Max.-Flux-Residual
  Residual-Control   Outer-Iter.   Inner-Iter.     Column Row Layer    Maximum-Head-Change  Column Row Layer    Maximum-Flux-Residual          L2-NORM 
          0                 1           2             4    6     1      -0.6723029644E-01       4    6    1        -0.3673587301E+01      0.5021238241E+01
          0                 2           2             4    6     1       0.6539234621E-02       4    6    1         0.3673260419E+00      0.4794695316E+00
          0                 3           2             4    6     1      -0.4453013348E-03       4    6    1        -0.2571314326E-01      0.3341956884E-01
          0                 4           1             4    6     1       0.1771896051E-04       4    6    1         0.1051667585E-02      0.1366384704E-02

    ------------------------------------------------
       NWT REQUIRED            4 OUTER ITERATIONS 
       AND A TOTAL OF          7 INNER ITERATIONS.
    ------------------------------------------------

 NO OUTPUT CONTROL FOR STRESS PERIOD   48   TIME STEP    1
 
 SOLVING FOR HEAD 
                                                   Max.-Head-Change                         Max.-Flux-Residual
  Residual-Control   Outer-Iter.   Inner-Iter.     Column Row Layer    Maximum-Head-Change  Column Row Layer    Maximum-Flux-Residual          L2-NORM 
          0                 1           2             4    6     1      -0.6394810790E-01       4    6    1        -0.3493245158E+01      0.4793858603E+01
          0                 2           2             4    6     1       0.6220012798E-02       4    6    1         0.3492950989E+00      0.4580050154E+00
          0                 3           2             4    6     1      -0.4235630962E-03       4    6    1        -0.2445094577E-01      0.3192384225E-01
          0                 4           1             4    6     1       0.1685397703E-04       4    6    1         0.1000043792E-02      0.1305239506E-02

    ------------------------------------------------
       NWT REQUIRED            4 OUTER ITERATIONS 
       AND A TOTAL OF          7 INNER ITERATIONS.
    ------------------------------------------------

 NO OUTPUT CONTROL FOR STRESS PERIOD   48   TIME STEP    2
 
 SOLVING FOR HEAD 
                                                   Max.-Head-Change                         Max.-Flux-Residual
  Residual-Control   Outer-Iter.   Inner-Iter.     Column Row Layer    Maximum-Head-Change  Column Row Layer    Maximum-Flux-Residual          L2-NORM 
          0                 1           2             4    6     1      -0.6084322393E-01       4    6    1        -0.3322708781E+01      0.4579745061E+01
          0                 2           2             4    6     1       0.5918033014E-02       4    6    1         0.3322443883E+00      0.4377707547E+00
          0                 3           2             4    6     1      -0.4029990214E-03       4    6    1        -0.2325736781E-01      0.3051377409E-01
          0                 4           1             4    6     1       0.1603571406E-04       4    6    1         0.9512265021E-03      0.1247595940E-02

    ------------------------------------------------
       NWT REQUIRED            4 OUTER ITERATIONS 
       AND A TOTAL OF          7 INNER ITERATIONS.
    ------------------------------------------------

 NO OUTPUT CONTROL FOR STRESS PERIOD   48   TIME STEP    3
 
 SOLVING FOR HEAD 
                                                   Max.-Head-Change                         Max.-Flux-Residual
  Residual-Control   Outer-Iter.   Inner-Iter.     Column Row Layer    Maximum-Head-Change  Column Row Layer    Maximum-Flux-Residual          L2-NORM 
          0                 1           2             4    6     1      -0.5790477191E-01       4    6    1        -0.3161373295E+01      0.4377992998E+01
          0                 2           2             4    6     1       0.5632238204E-02       4    6    1         0.3161134606E+00      0.4186846065E+00
          0                 3           2             4    6     1      -0.3835371241E-03       4    6    1        -0.2212817758E-01      0.2918365074E-01
          0                 4           1             4    6     1       0.1526130791E-04       4    6    1         0.9050426868E-03      0.1193219029E-02

    ------------------------------------------------
       NWT REQUIRED            4 OUTER ITERATIONS 
       AND A TOTAL OF          7 INNER ITERATIONS.
    ------------------------------------------------

 NO OUTPUT CONTROL FOR STRESS PERIOD   48   TIME STEP    4
 
 SOLVING FOR HEAD 
                                                   Max.-Head-Change                         Max.-Flux-Residual
  Residual-Control   Outer-Iter.   Inner-Iter.     Column Row Layer    Maximum-Head-Change  Column Row Layer    Maximum-Flux-Residual          L2-NORM 
          0                 1           2             4    6     1      -0.5512301528E-01       4    6    1        -0.3008697021E+01      0.4187785080E+01
          0                 2           2             4    6     1       0.5361658575E-02       4    6    1         0.3008481815E+00      0.4007205964E+00
          0                 3           2             4    6     1      -0.3651113610E-03       4    6    1        -0.2105958541E-01      0.2793170227E-01
          0                 4           1             4    6     1       0.1452813034E-04       4    6    1         0.8613373011E-03      0.1142037480E-02

    ------------------------------------------------
       NWT REQUIRED            4 OUTER ITERATIONS 
       AND A TOTAL OF          7 INNER ITERATIONS.
    ------------------------------------------------

 NO OUTPUT CONTROL FOR STRESS PERIOD   48   TIME STEP    5
 
 SOLVING FOR HEAD 
                                                   Max.-Head-Change                         Max.-Flux-Residual
  Residual-Control   Outer-Iter.   Inner-Iter.     Column Row Layer    Maximum-Head-Change  Column Row Layer    Maximum-Flux-Residual          L2-NORM 
          0                 1           2             4    6     1      -0.5248865641E-01       4    6    1        -0.2864154217E+01      0.4008330071E+01
          0                 2           2             4    6     1       0.5105460479E-02       4    6    1         0.2863960076E+00      0.3836494576E+00
          0                 3           2             4    6     1      -0.3476649225E-03       4    6    1        -0.2004791286E-01      0.2674182274E-01
          0                 4           1             4    6     1       0.1383392196E-04       4    6    1         0.8199599272E-03      0.1093399773E-02

    ------------------------------------------------
       NWT REQUIRED            4 OUTER ITERATIONS 
       AND A TOTAL OF          7 INNER ITERATIONS.
    ------------------------------------------------

 NO OUTPUT CONTROL FOR STRESS PERIOD   48   TIME STEP    6
 
 SOLVING FOR HEAD 
                                                   Max.-Head-Change                         Max.-Flux-Residual
  Residual-Control   Outer-Iter.   Inner-Iter.     Column Row Layer    Maximum-Head-Change  Column Row Layer    Maximum-Flux-Residual          L2-NORM 
          0                 1           2             4    6     1      -0.4999287428E-01       4    6    1        -0.2727266389E+01      0.3838779431E+01
          0                 2           2             4    6     1       0.4862715524E-02       4    6    1         0.2727091145E+00      0.3675549066E+00
          0                 3           2             4    6     1      -0.3311346628E-03       4    6    1        -0.1908981204E-01      0.2562130604E-01
          0                 4           1             4    6     1       0.1317616770E-04       4    6    1         0.7807736295E-03      0.1047592694E-02

    ------------------------------------------------
       NWT REQUIRED            4 OUTER ITERATIONS 
       AND A TOTAL OF          7 INNER ITERATIONS.
    ------------------------------------------------

 NO OUTPUT CONTROL FOR STRESS PERIOD   48   TIME STEP    7
 
 SOLVING FOR HEAD 
                                                   Max.-Head-Change                         Max.-Flux-Residual
  Residual-Control   Outer-Iter.   Inner-Iter.     Column Row Layer    Maximum-Head-Change  Column Row Layer    Maximum-Flux-Residual          L2-NORM 
          0                 1           2             4    6     1      -0.4762780061E-01       4    6    1        -0.2597594645E+01      0.3678234376E+01
          0                 2           2             4    6     1       0.4632264369E-02       4    6    1         0.2597436362E+00      0.3515487170E+00
          0                 3           2             4    6     1      -0.3154415874E-03       4    6    1        -0.1818221237E-01      0.2450544455E-01
          0                 4           1             4    6     1       0.1255172630E-04       4    6    1         0.7436528292E-03      0.1001972663E-02

    ------------------------------------------------
       NWT REQUIRED            4 OUTER ITERATIONS 
       AND A TOTAL OF          7 INNER ITERATIONS.
    ------------------------------------------------

 NO OUTPUT CONTROL FOR STRESS PERIOD   48   TIME STEP    8
 
 SOLVING FOR HEAD 
                                                   Max.-Head-Change                         Max.-Flux-Residual
  Residual-Control   Outer-Iter.   Inner-Iter.     Column Row Layer    Maximum-Head-Change  Column Row Layer    Maximum-Flux-Residual          L2-NORM 
          0                 1           2             4    6     1      -0.4538692592E-01       4    6    1        -0.2474722547E+01      0.3527293829E+01
          0                 2           2             4    6     1       0.4414726947E-02       4    6    1         0.2474579556E+00      0.3380940193E+00
          0                 3           2             4    6     1      -0.3006279068E-03       4    6    1        -0.1732219964E-01      0.2356837568E-01
          0                 4           1             4    6     1       0.1196227621E-04       4    6    1         0.7084783240E-03      0.9636659371E-03

    ------------------------------------------------
       NWT REQUIRED            4 OUTER ITERATIONS 
       AND A TOTAL OF          7 INNER ITERATIONS.
    ------------------------------------------------

 NO OUTPUT CONTROL FOR STRESS PERIOD   48   TIME STEP    9
 
 SOLVING FOR HEAD 
                                                   Max.-Head-Change                         Max.-Flux-Residual
  Residual-Control   Outer-Iter.   Inner-Iter.     Column Row Layer    Maximum-Head-Change  Column Row Layer    Maximum-Flux-Residual          L2-NORM 
          0                 1           2             4    6     1      -0.4326188606E-01       4    6    1        -0.2358267869E+01      0.3384933206E+01
          0                 2           2             4    6     1       0.4208037275E-02       4    6    1         0.2358138591E+00      0.3246106813E+00
          0                 3           2             4    6     1      -0.2865529420E-03       4    6    1        -0.1650709956E-01      0.2262876552E-01
          0                 4           1             4    6     1       0.1140222050E-04       4    6    1         0.6751407457E-03      0.9252639246E-03

    ------------------------------------------------
       NWT REQUIRED            4 OUTER ITERATIONS 
       AND A TOTAL OF          7 INNER ITERATIONS.
    ------------------------------------------------

 NO OUTPUT CONTROL FOR STRESS PERIOD   48   TIME STEP   10
 
 SOLVING FOR HEAD 
                                                   Max.-Head-Change                         Max.-Flux-Residual
  Residual-Control   Outer-Iter.   Inner-Iter.     Column Row Layer    Maximum-Head-Change  Column Row Layer    Maximum-Flux-Residual          L2-NORM 
          0                 1           2             4    6     1      -0.4124637073E-01       4    6    1        -0.2247856320E+01      0.3250322154E+01
          0                 2           2             4    6     1       0.4011999418E-02       4    6    1         0.2247739370E+00      0.3118472026E+00
          0                 3           2             4    6     1      -0.2732033438E-03       4    6    1        -0.1573429302E-01      0.2173926907E-01
          0                 4           1             4    6     1       0.1087102786E-04       4    6    1         0.6435329612E-03      0.8888874437E-03

    ------------------------------------------------
       NWT REQUIRED            4 OUTER ITERATIONS 
       AND A TOTAL OF          7 INNER ITERATIONS.
    ------------------------------------------------

 NO OUTPUT CONTROL FOR STRESS PERIOD   48   TIME STEP   11
 
 SOLVING FOR HEAD 
                                                   Max.-Head-Change                         Max.-Flux-Residual
  Residual-Control   Outer-Iter.   Inner-Iter.     Column Row Layer    Maximum-Head-Change  Column Row Layer    Maximum-Flux-Residual          L2-NORM 
          0                 1           2             4    6     1      -0.3933381836E-01       4    6    1        -0.2143123709E+01      0.3122954197E+01
          0                 2           2             4    6     1       0.3825975327E-02       4    6    1         0.2143017849E+00      0.2997574569E+00
          0                 3           2             4    6     1      -0.2605356623E-03       4    6    1        -0.1500123158E-01      0.2089667960E-01
          0                 4           1             4    6     1       0.1036696952E-04       4    6    1         0.6135507733E-03      0.8544386683E-03

    ------------------------------------------------
       NWT REQUIRED            4 OUTER ITERATIONS 
       AND A TOTAL OF          7 INNER ITERATIONS.
    ------------------------------------------------

 NO OUTPUT CONTROL FOR STRESS PERIOD   48   TIME STEP   12
 
 SOLVING FOR HEAD 
                                                   Max.-Head-Change                         Max.-Flux-Residual
  Residual-Control   Outer-Iter.   Inner-Iter.     Column Row Layer    Maximum-Head-Change  Column Row Layer    Maximum-Flux-Residual          L2-NORM 
          0                 1           2             4    6     1      -0.3751850061E-01       4    6    1        -0.2043751890E+01      0.3002386958E+01
          0                 2           2             4    6     1       0.3649407970E-02       4    6    1         0.2043656013E+00      0.2883020478E+00
          0                 3           2             4    6     1      -0.2485119628E-03       4    6    1        -0.1430568898E-01      0.2009825963E-01
          0                 4           1             4    6     1       0.9888535130E-05       4    6    1         0.5851030749E-03      0.8217960772E-03

    ------------------------------------------------
       NWT REQUIRED            4 OUTER ITERATIONS 
       AND A TOTAL OF          7 INNER ITERATIONS.
    ------------------------------------------------

 NO OUTPUT CONTROL FOR STRESS PERIOD   48   TIME STEP   13
 
 SOLVING FOR HEAD 
                                                   Max.-Head-Change                         Max.-Flux-Residual
  Residual-Control   Outer-Iter.   Inner-Iter.     Column Row Layer    Maximum-Head-Change  Column Row Layer    Maximum-Flux-Residual          L2-NORM 
          0                 1           2             4    6     1      -0.3579480116E-01       4    6    1        -0.1949429112E+01      0.2888195274E+01
          0                 2           2             4    6     1       0.3481751200E-02       4    6    1         0.1949342228E+00      0.2774420984E+00
          0                 3           2             4    6     1      -0.2370950537E-03       4    6    1        -0.1364548370E-01      0.1934130696E-01
          0                 4           1             4    6     1       0.9434245764E-05       4    6    1         0.5581006724E-03      0.7908490613E-03

    ------------------------------------------------
       NWT REQUIRED            4 OUTER ITERATIONS 
       AND A TOTAL OF          7 INNER ITERATIONS.
    ------------------------------------------------

 NO OUTPUT CONTROL FOR STRESS PERIOD   48   TIME STEP   14
 
 SOLVING FOR HEAD 
                                                   Max.-Head-Change                         Max.-Flux-Residual
  Residual-Control   Outer-Iter.   Inner-Iter.     Column Row Layer    Maximum-Head-Change  Column Row Layer    Maximum-Flux-Residual          L2-NORM 
          0                 1           2             4    6     1      -0.3415746217E-01       4    6    1        -0.1859864162E+01      0.2779990510E+01
          0                 2           2             4    6     1       0.3322532228E-02       4    6    1         0.1859785384E+00      0.2659906138E+00
          0                 3           2             4    6     1      -0.2262625715E-03       4    6    1        -0.1301857782E-01      0.1851348909E-01
          0                 4           1             4    6     1       0.9002684083E-05       4    6    1         0.5324602291E-03      0.7584340001E-03

    ------------------------------------------------
       NWT REQUIRED            4 OUTER ITERATIONS 
       AND A TOTAL OF          7 INNER ITERATIONS.
    ------------------------------------------------

 NO OUTPUT CONTROL FOR STRESS PERIOD   48   TIME STEP   15
 
 SOLVING FOR HEAD 
                                                   Max.-Head-Change                         Max.-Flux-Residual
  Residual-Control   Outer-Iter.   Inner-Iter.     Column Row Layer    Maximum-Head-Change  Column Row Layer    Maximum-Flux-Residual          L2-NORM 
          0                 1           2             4    6     1      -0.3260165116E-01       4    6    1        -0.1774790284E+01      0.2677448375E+01
          0                 2           2             4    6     1       0.3171325748E-02       4    6    1         0.1774718815E+00      0.2554535084E+00
          0                 3           2             4    6     1      -0.2159505817E-03       4    6    1        -0.1242310460E-01      0.1779422927E-01
          0                 4           1             4    6     1       0.8593068254E-05       4    6    1         0.5081053646E-03      0.7275249723E-03

    ------------------------------------------------
       NWT REQUIRED            4 OUTER ITERATIONS 
       AND A TOTAL OF          7 INNER ITERATIONS.
    ------------------------------------------------

 NO OUTPUT CONTROL FOR STRESS PERIOD   48   TIME STEP   16
 
 SOLVING FOR HEAD 
                                                   Max.-Head-Change                         Max.-Flux-Residual
  Residual-Control   Outer-Iter.   Inner-Iter.     Column Row Layer    Maximum-Head-Change  Column Row Layer    Maximum-Flux-Residual          L2-NORM 
          0                 1           2             4    6     1      -0.3112239602E-01       4    6    1        -0.1693937793E+01      0.2580047131E+01
          0                 2           2             4    6     1       0.3027440836E-02       4    6    1         0.1693872918E+00      0.2461364831E+00
          0                 3           2             4    6     1      -0.2061525820E-03       4    6    1        -0.1185717685E-01      0.1714453885E-01
          0                 4           1             4    6     1       0.8203193011E-05       4    6    1         0.4849589282E-03      0.7009637321E-03

    ------------------------------------------------
       NWT REQUIRED            4 OUTER ITERATIONS 
       AND A TOTAL OF          7 INNER ITERATIONS.
    ------------------------------------------------

 NO OUTPUT CONTROL FOR STRESS PERIOD   48   TIME STEP   17
 
 SOLVING FOR HEAD 
                                                   Max.-Head-Change                         Max.-Flux-Residual
  Residual-Control   Outer-Iter.   Inner-Iter.     Column Row Layer    Maximum-Head-Change  Column Row Layer    Maximum-Flux-Residual          L2-NORM 
          0                 1           2             4    6     1      -0.2971583125E-01       4    6    1        -0.1617084343E+01      0.2487621157E+01
          0                 2           2             4    6     1       0.2890625797E-02       4    6    1         0.1617025421E+00      0.2372930548E+00
          0                 3           2             4    6     1      -0.1968360213E-03       4    6    1        -0.1131923851E-01      0.1652787184E-01
          0                 4           1             4    6     1       0.7832474654E-05       4    6    1         0.4629572445E-03      0.6757500622E-03

    ------------------------------------------------
       NWT REQUIRED            4 OUTER ITERATIONS 
       AND A TOTAL OF          7 INNER ITERATIONS.
    ------------------------------------------------

 NO OUTPUT CONTROL FOR STRESS PERIOD   48   TIME STEP   18
 
 SOLVING FOR HEAD 
                                                   Max.-Head-Change                         Max.-Flux-Residual
  Residual-Control   Outer-Iter.   Inner-Iter.     Column Row Layer    Maximum-Head-Change  Column Row Layer    Maximum-Flux-Residual          L2-NORM 
          0                 1           2             4    6     1      -0.2837766013E-01       4    6    1        -0.1543992560E+01      0.2399866168E+01
          0                 2           2             4    6     1       0.2760462785E-02       4    6    1         0.1543939020E+00      0.2288948164E+00
          0                 3           2             4    6     1      -0.1879724458E-03       4    6    1        -0.1080762841E-01      0.1594224662E-01
          0                 4           1             4    6     1       0.7479780905E-05       4    6    1         0.4420323860E-03      0.6518071713E-03

    ------------------------------------------------
       NWT REQUIRED            4 OUTER ITERATIONS 
       AND A TOTAL OF          7 INNER ITERATIONS.
    ------------------------------------------------

 NO OUTPUT CONTROL FOR STRESS PERIOD   48   TIME STEP   19
 
 SOLVING FOR HEAD 
                                                   Max.-Head-Change                         Max.-Flux-Residual
  Residual-Control   Outer-Iter.   Inner-Iter.     Column Row Layer    Maximum-Head-Change  Column Row Layer    Maximum-Flux-Residual          L2-NORM 
          0                 1           2             4    6     1      -0.2710439798E-01       4    6    1        -0.1474469086E+01      0.2316527769E+01
          0                 2           2             4    6     1       0.2636612932E-02       4    6    1         0.1474420412E+00      0.2209174464E+00
          0                 3           2             4    6     1      -0.1795387777E-03       4    6    1        -0.1032099335E-01      0.1538597429E-01
          0                 4           1             4    6     1       0.7144193736E-05       4    6    1         0.4221289910E-03      0.6290648016E-03

    ------------------------------------------------
       NWT REQUIRED            4 OUTER ITERATIONS 
       AND A TOTAL OF          7 INNER ITERATIONS.
    ------------------------------------------------

 NO OUTPUT CONTROL FOR STRESS PERIOD   48   TIME STEP   20
 
 SOLVING FOR HEAD 
                                                   Max.-Head-Change                         Max.-Flux-Residual
  Residual-Control   Outer-Iter.   Inner-Iter.     Column Row Layer    Maximum-Head-Change  Column Row Layer    Maximum-Flux-Residual          L2-NORM 
          0                 1           2             4    6     1      -0.2589237301E-01       4    6    1        -0.1408311160E+01      0.2237351887E+01
          0                 2           2             4    6     1       0.2518679814E-02       4    6    1         0.1408282504E+00      0.2132074395E+00
          0                 3           2             4    6     1      -0.1715076846E-03       4    6    1        -0.9858001027E-02      0.1484824499E-01
          0                 4           1             4    6     1       0.6824627148E-05       4    6    1         0.4031927028E-03      0.6070783843E-03

    ------------------------------------------------
       NWT REQUIRED            4 OUTER ITERATIONS 
       AND A TOTAL OF          7 INNER ITERATIONS.
    ------------------------------------------------

 NO OUTPUT CONTROL FOR STRESS PERIOD   48   TIME STEP   21
 
 SOLVING FOR HEAD 
                                                   Max.-Head-Change                         Max.-Flux-Residual
  Residual-Control   Outer-Iter.   Inner-Iter.     Column Row Layer    Maximum-Head-Change  Column Row Layer    Maximum-Flux-Residual          L2-NORM 
          0                 1           2             4    6     1      -0.2473849245E-01       4    6    1        -0.1345330476E+01      0.2162166487E+01
          0                 2           2             4    6     1       0.2406511898E-02       4    6    1         0.1345311811E+00      0.2061415561E+00
          0                 3           2             4    6     1      -0.1638695529E-03       4    6    1        -0.9417204354E-02      0.1435562294E-01
          0                 4           1             4    6     1       0.6520695233E-05       4    6    1         0.3851641129E-03      0.5869372965E-03

    ------------------------------------------------
       NWT REQUIRED            4 OUTER ITERATIONS 
       AND A TOTAL OF          7 INNER ITERATIONS.
    ------------------------------------------------

 NO OUTPUT CONTROL FOR STRESS PERIOD   48   TIME STEP   22
 
 SOLVING FOR HEAD 
                                                   Max.-Head-Change                         Max.-Flux-Residual
  Residual-Control   Outer-Iter.   Inner-Iter.     Column Row Layer    Maximum-Head-Change  Column Row Layer    Maximum-Flux-Residual          L2-NORM 
          0                 1           2             4    6     1      -0.2363970974E-01       4    6    1        -0.1285380822E+01      0.2091002533E+01
          0                 2           2             4    6     1       0.2299629499E-02       4    6    1         0.1285363717E+00      0.1993308798E+00
          0                 3           2             4    6     1      -0.1565913452E-03       4    6    1        -0.8997566045E-02      0.1388074819E-01
          0                 4           1             4    6     1       0.6231084962E-05       4    6    1         0.3680008913E-03      0.5675242855E-03

    ------------------------------------------------
       NWT REQUIRED            4 OUTER ITERATIONS 
       AND A TOTAL OF          7 INNER ITERATIONS.
    ------------------------------------------------

 NO OUTPUT CONTROL FOR STRESS PERIOD   48   TIME STEP   23
 
 SOLVING FOR HEAD 
                                                   Max.-Head-Change                         Max.-Flux-Residual
  Residual-Control   Outer-Iter.   Inner-Iter.     Column Row Layer    Maximum-Head-Change  Column Row Layer    Maximum-Flux-Residual          L2-NORM 
          0                 1           2             4    6     1      -0.2259287537E-01       4    6    1        -0.1228284562E+01      0.2023299483E+01
          0                 2           2             4    6     1       0.2197800116E-02       4    6    1         0.1228268880E+00      0.1928508097E+00
          0                 3           2             4    6     1      -0.1496572282E-03       4    6    1        -0.8597900658E-02      0.1342892481E-01
          0                 4           1             4    6     1       0.5955166471E-05       4    6    1         0.3516545535E-03      0.5490493642E-03

    ------------------------------------------------
       NWT REQUIRED            4 OUTER ITERATIONS 
       AND A TOTAL OF          7 INNER ITERATIONS.
    ------------------------------------------------

 NO OUTPUT CONTROL FOR STRESS PERIOD   48   TIME STEP   24
 
 SOLVING FOR HEAD 
                                                   Max.-Head-Change                         Max.-Flux-Residual
  Residual-Control   Outer-Iter.   Inner-Iter.     Column Row Layer    Maximum-Head-Change  Column Row Layer    Maximum-Flux-Residual          L2-NORM 
          0                 1           2             4    6     1      -0.2159537784E-01       4    6    1        -0.1173896524E+01      0.1958878555E+01
          0                 2           2             4    6     1       0.2100769748E-02       4    6    1         0.1173882140E+00      0.1866845721E+00
          0                 3           2             4    6     1      -0.1430499055E-03       4    6    1        -0.8217192088E-02      0.1299898718E-01
          0                 4           1             4    6     1       0.5692251758E-05       4    6    1         0.3360835715E-03      0.5314719976E-03

    ------------------------------------------------
       NWT REQUIRED            4 OUTER ITERATIONS 
       AND A TOTAL OF          7 INNER ITERATIONS.
    ------------------------------------------------

 NO OUTPUT CONTROL FOR STRESS PERIOD   48   TIME STEP   25
 
 SOLVING FOR HEAD 
                                                   Max.-Head-Change                         Max.-Flux-Residual
  Residual-Control   Outer-Iter.   Inner-Iter.     Column Row Layer    Maximum-Head-Change  Column Row Layer    Maximum-Flux-Residual          L2-NORM 
          0                 1           2             4    6     1      -0.2064435096E-01       4    6    1        -0.1122059233E+01      0.1897544936E+01
          0                 2           2             4    6     1       0.2008259610E-02       4    6    1         0.1122046036E+00      0.1808138931E+00
          0                 3           2             4    6     1      -0.1367503922E-03       4    6    1        -0.7854338081E-02      0.1258966432E-01
          0                 4           1             4    6     1       0.5441585009E-05       4    6    1         0.3212428176E-03      0.5147374766E-03

    ------------------------------------------------
       NWT REQUIRED            4 OUTER ITERATIONS 
       AND A TOTAL OF          7 INNER ITERATIONS.
    ------------------------------------------------

 NO OUTPUT CONTROL FOR STRESS PERIOD   48   TIME STEP   26
 
 SOLVING FOR HEAD 
                                                   Max.-Head-Change                         Max.-Flux-Residual
  Residual-Control   Outer-Iter.   Inner-Iter.     Column Row Layer    Maximum-Head-Change  Column Row Layer    Maximum-Flux-Residual          L2-NORM 
          0                 1           2             4    6     1      -0.1973765045E-01       4    6    1        -0.1072653498E+01      0.1839153143E+01
          0                 2           2             4    6     1       0.1920061140E-02       4    6    1         0.1072641385E+00      0.1752248225E+00
          0                 3           2             4    6     1      -0.1307444866E-03       4    6    1        -0.7508504358E-02      0.1219998041E-01
          0                 4           1             4    6     1       0.5202601179E-05       4    6    1         0.3070982041E-03      0.4988077367E-03

    ------------------------------------------------
       NWT REQUIRED            4 OUTER ITERATIONS 
       AND A TOTAL OF          7 INNER ITERATIONS.
    ------------------------------------------------

 NO OUTPUT CONTROL FOR STRESS PERIOD   48   TIME STEP   27
 
 SOLVING FOR HEAD 
                                                   Max.-Head-Change                         Max.-Flux-Residual
  Residual-Control   Outer-Iter.   Inner-Iter.     Column Row Layer    Maximum-Head-Change  Column Row Layer    Maximum-Flux-Residual          L2-NORM 
          0                 1           2             4    6     1      -0.1887271946E-01       4    6    1        -0.1025538717E+01      0.1783539980E+01
          0                 2           2             4    6     1       0.1835925645E-02       4    6    1         0.1025527596E+00      0.1699017844E+00
          0                 3           2             4    6     1      -0.1250152528E-03       4    6    1        -0.7178706766E-02      0.1182885495E-01
          0                 4           1             4    6     1       0.4974626541E-05       4    6    1         0.2936094668E-03      0.4836451308E-03

    ------------------------------------------------
       NWT REQUIRED            4 OUTER ITERATIONS 
       AND A TOTAL OF          7 INNER ITERATIONS.
    ------------------------------------------------

 NO OUTPUT CONTROL FOR STRESS PERIOD   48   TIME STEP   28
 
 SOLVING FOR HEAD 
                                                   Max.-Head-Change                         Max.-Flux-Residual
  Residual-Control   Outer-Iter.   Inner-Iter.     Column Row Layer    Maximum-Head-Change  Column Row Layer    Maximum-Flux-Residual          L2-NORM 
          0                 1           2             4    6     1      -0.1804742880E-01       4    6    1        -0.9805970267E+00      0.1730552508E+01
          0                 2           2             4    6     1       0.1755681495E-02       4    6    1         0.9805868133E-01      0.1648990410E+00
          0                 3           2             4    6     1      -0.1195509971E-03       4    6    1        -0.6864120271E-02      0.1148011544E-01
          0                 4           1             4    6     1       0.4757195749E-05       4    6    1         0.2807428696E-03      0.4693737018E-03

    ------------------------------------------------
       NWT REQUIRED            4 OUTER ITERATIONS 
       AND A TOTAL OF          7 INNER ITERATIONS.
    ------------------------------------------------

 NO OUTPUT CONTROL FOR STRESS PERIOD   48   TIME STEP   29
 
 SOLVING FOR HEAD 
                                                   Max.-Head-Change                         Max.-Flux-Residual
  Residual-Control   Outer-Iter.   Inner-Iter.     Column Row Layer    Maximum-Head-Change  Column Row Layer    Maximum-Flux-Residual          L2-NORM 
          0                 1           2             4    6     1      -0.1725950019E-01       4    6    1        -0.9377161371E+00      0.1680027578E+01
          0                 2           2             4    6     1       0.1679000895E-02       4    6    1         0.9377067486E-01      0.1599950136E+00
          0                 3           2             4    6     1      -0.1143294117E-03       4    6    1        -0.6563958933E-02      0.1113816919E-01
          0                 4           1             4    6     1       0.4549421284E-05       4    6    1         0.2684662552E-03      0.4554092294E-03

    ------------------------------------------------
       NWT REQUIRED            4 OUTER ITERATIONS 
       AND A TOTAL OF          7 INNER ITERATIONS.
    ------------------------------------------------

 NO OUTPUT CONTROL FOR STRESS PERIOD   48   TIME STEP   30



 STREAM LISTING     PERIOD     48   STEP       30

 LAYER ROW COL. STREAM  RCH.  FLOW INTO     FLOW TO   FLOW OUT OF   OVRLND.     DIRECT     STREAM       STREAM     STREAM     STREAM   STREAMBED  STREAMBED
                SEG.NO.  NO.  STRM. RCH.    AQUIFER    STRM. RCH.    RUNOFF     PRECIP       ET          HEAD       DEPTH      WIDTH   CONDCTNC.   GRADIENT

   1    1    1     1     1    7.8748E+00  1.2804E-01   7.7467E+00  0.000E+00  0.000E+00  0.000E+00  1.09388E+03  8.295E-01  7.430E+00  3.344E-02  1.276E+00
   1    2    2     1     2    7.7467E+00  1.9662E-01   7.5501E+00  0.000E+00  0.000E+00  0.000E+00  1.08888E+03  8.237E-01  7.346E+00  5.142E-02  1.275E+00
   1    3    3     1     3    7.5501E+00  1.6606E-01   7.3840E+00  0.000E+00  0.000E+00  0.000E+00  1.08324E+03  8.172E-01  7.251E+00  4.350E-02  1.272E+00
   1    3    4     1     4    7.3840E+00  1.5159E-01   7.2324E+00  0.000E+00  0.000E+00  0.000E+00  1.07822E+03  8.115E-01  7.166E+00  3.977E-02  1.270E+00
   1    4    5     2     1    5.2324E+00  2.7028E-01   4.9622E+00  0.000E+00  0.000E+00  0.000E+00  1.07240E+03  4.651E-01  1.200E+01  7.800E-02  1.155E+00
   1    5    6     2     2    4.9622E+00  2.0711E-01   4.7551E+00  0.000E+00  0.000E+00  0.000E+00  1.06696E+03  4.519E-01  1.200E+01  6.000E-02  1.151E+00
   1    6    6     2     3    4.7551E+00  2.0642E-01   4.5486E+00  0.000E+00  0.000E+00  0.000E+00  1.06223E+03  4.403E-01  1.200E+01  6.000E-02  1.147E+00
   1    7    6     2     4    4.5486E+00  2.0571E-01   4.3429E+00  0.000E+00  0.000E+00  0.000E+00  1.05750E+03  4.285E-01  1.200E+01  6.000E-02  1.143E+00
   1    8    6     2     5    4.3429E+00  2.0499E-01   4.1379E+00  0.000E+00  0.000E+00  0.000E+00  1.05278E+03  4.165E-01  1.200E+01  6.000E-02  1.139E+00
   1    3    5     3     1    2.0000E+00  2.8252E-01   1.7175E+00  0.000E+00  0.000E+00  0.000E+00  1.07555E+03  1.909E+00  9.636E+00  7.227E-02  1.955E+00
   1    3    6     3     2    1.7175E+00  2.4905E-01   1.4684E+00  0.000E+00  0.000E+00  0.000E+00  1.07264E+03  1.727E+00  8.909E+00  6.682E-02  1.864E+00
   1    3    7     3     3    1.4684E+00  1.9718E-01   1.2712E+00  0.000E+00  0.000E+00  0.000E+00  1.06987E+03  1.555E+00  8.218E+00  5.547E-02  1.777E+00
   1    4    8     3     4    1.2712E+00  2.2567E-01   1.0456E+00  0.000E+00  0.000E+00  0.000E+00  1.06682E+03  1.364E+00  7.455E+00  6.709E-02  1.682E+00
   1    5    8     3     5    1.0456E+00  1.5790E-01   8.8768E-01  0.000E+00  0.000E+00  0.000E+00  1.06362E+03  1.164E+00  6.655E+00  4.991E-02  1.582E+00
   1    6    8     3     6    8.8768E-01  5.5980E-02   8.3170E-01  0.000E+00  0.000E+00  0.000E+00  1.06158E+03  1.036E+00  6.145E+00  1.844E-02  1.518E+00
   1    5   10     4     1    1.0000E+01  9.0919E-02   9.9091E+00  0.000E+00  0.000E+00  0.000E+00  1.07836E+03  6.368E-01  1.000E+01  2.500E-02  1.212E+00
   1    5    9     4     2    9.9091E+00  1.8158E-01   9.7275E+00  0.000E+00  0.000E+00  0.000E+00  1.07154E+03  6.315E-01  1.000E+01  5.000E-02  1.211E+00
   1    6    8     4     3    9.7275E+00  1.2689E-01   9.6006E+00  0.000E+00  0.000E+00  0.000E+00  1.06381E+03  6.256E-01  1.000E+01  3.500E-02  1.209E+00
   1    6    8     5     1    1.0432E+01  2.2686E-01   1.0205E+01  0.000E+00  0.000E+00  0.000E+00  1.05868E+03  6.790E-01  1.542E+01  6.166E-02  1.226E+00
   1    7    7     5     2    1.0205E+01  2.7894E-01   9.9265E+00  0.000E+00  0.000E+00  0.000E+00  1.05417E+03  6.732E-01  1.519E+01  7.594E-02  1.224E+00
   1    8    7     5     3    9.9265E+00  1.9221E-01   9.7343E+00  0.000E+00  0.000E+00  0.000E+00  1.04992E+03  6.676E-01  1.497E+01  5.241E-02  1.223E+00
   1    8    6     5     4    9.7343E+00  1.3577E-01   9.5985E+00  0.000E+00  0.000E+00  0.000E+00  1.04691E+03  6.637E-01  1.482E+01  3.706E-02  1.221E+00
   1    9    6     6     1    1.3736E+01  2.3089E-01   1.3506E+01  0.000E+00  0.000E+00  0.000E+00  1.04358E+03  8.482E-01  1.200E+01  6.000E-02  1.283E+00
   1   10    7     6     2    1.3506E+01  2.3037E-01   1.3275E+01  0.000E+00  0.000E+00  0.000E+00  1.03902E+03  8.396E-01  1.200E+01  6.000E-02  1.280E+00
   1   11    7     6     3    1.3275E+01  2.2985E-01   1.3045E+01  0.000E+00  0.000E+00  0.000E+00  1.03447E+03  8.309E-01  1.200E+01  6.000E-02  1.277E+00
   1   12    7     6     4    1.3045E+01  2.2933E-01   1.2816E+01  0.000E+00  0.000E+00  0.000E+00  1.02991E+03  8.221E-01  1.200E+01  6.000E-02  1.274E+00
   1   13    7     6     5    1.2816E+01  6.3012E-03   1.2810E+01  0.000E+00  0.000E+00  0.000E+00  1.02673E+03  8.176E-01  1.200E+01  2.400E-02  8.752E-02
   1   14    9     7     1    1.5000E+02  1.4140E+00   1.4859E+02  0.000E+00  0.000E+00  0.000E+00  1.03987E+03  2.288E+00  5.529E+01  5.593E-01  8.427E-01
   1   13    8     7     2    1.4859E+02  2.0482E+00   1.4654E+02  0.000E+00  0.000E+00  0.000E+00  1.03478E+03  2.278E+00  5.525E+01  6.147E-01  1.111E+00
   1   13    7     7     3    1.4654E+02  1.7996E+00   1.4474E+02  0.000E+00  0.000E+00  0.000E+00  1.02969E+03  2.268E+00  5.521E+01  5.583E-01  1.074E+00
   1   13    6     8     1    1.5755E+02  1.1636E+00   1.5638E+02  0.000E+00  0.000E+00  0.000E+00  1.02474E+03  2.865E+00  4.155E+01  4.234E-01  9.162E-01
   1   13    5     8     2    1.5638E+02  4.0187E-01   1.5598E+02  0.000E+00  0.000E+00  0.000E+00  1.01848E+03  2.860E+00  4.147E+01  4.226E-01  3.170E-01
   1   13    4     8     3    1.5598E+02 -1.6632E+00   1.5765E+02  0.000E+00  0.000E+00  0.000E+00  1.01224E+03  2.864E+00  4.153E+01  4.232E+00 -1.310E-01
   1   13    3     8     4    1.5765E+02 -3.2532E+00   1.6090E+02  0.000E+00  0.000E+00  0.000E+00  1.00601E+03  2.881E+00  4.177E+01  4.257E+00 -2.547E-01
   1   13    2     8     5    1.6090E+02 -2.4711E+00   1.6337E+02  0.000E+00  0.000E+00  0.000E+00  9.99775E+02  2.900E+00  4.205E+01  4.285E+00 -1.922E-01
   1   13    1     8     6    1.6337E+02 -1.9484E+00   1.6532E+02  0.000E+00  0.000E+00  0.000E+00  9.94790E+02  2.915E+00  4.227E+01  2.584E+00 -2.513E-01
   1    8    6     9     1    0.0000E+00  0.0000E+00   0.0000E+00  0.000E+00  0.000E+00  0.000E+00  1.07875E+03  0.000E+00  4.000E+00  0.000E+00  1.000E+00
   1    8    5     9     2    0.0000E+00  0.0000E+00   0.0000E+00  0.000E+00  0.000E+00  0.000E+00  1.07825E+03  0.000E+00  4.000E+00  0.000E+00  1.000E+00





UNSATURATED ZONE PACKAGE VOLUMETRIC BUDGET FOR  TIME STEP    30 STRESS PERIOD   48
  ------------------------------------------------------------------------------



     CUMULATIVE VOLUMES      L**3       RATES FOR THIS TIME STEP      L**3/T
     ------------------                 ------------------------

           IN:                                      IN:
           ---                                      ---
        INFILTRATION =  7037737690.4180          INFILTRATION =           0.8475

          OUT:                                     OUT:
          ----                                     ----
              UZF ET =  1708802033.7370                UZF ET =           0.7950
        UZF RECHARGE =  4991377134.1279          UZF RECHARGE =           0.1030

            IN - OUT =   337558522.5531              IN - OUT =      -5.0548E-02

          STORAGE:                                 STORAGE:
          --------                                 --------
      STORAGE CHANGE =   337705095.9603        STORAGE CHANGE =      -5.0548E-02

 PERCENT DISCREPANCY IS DIFFERENCE BETWEEN IN-OUT MINUS CHANGE IN STORAGE
 DIVIDED BY THE AVERAGE OF IN AND OUT TIMES 100

 PERCENT DISCREPANCY =          -0.00     PERCENT DISCREPANCY =           0.00






1
  VOLUMETRIC BUDGET FOR AGRICULTURAL FIELDS AT  END OF TIME STEP   30, STRESS PERIOD  48
  ------------------------------------------------------------------------------

     CUMULATIVE VOLUMES      L**3       RATES FOR THIS TIME STEP      L**3/T
     ------------------                 ------------------------

           IN:                                      IN:
           ---                                      ---
               AG WELLS  =  5977688576.0000                 AG WELLS  =           0.0000
      DIVERSION SEGMENTS =   955233536.0000        DIVERSION SEGMENTS =           0.0000
           GW IRRIGATION =           0.0000             GW IRRIGATION =           0.0000
           SW IRRIGATION =           0.0000             SW IRRIGATION =           0.0000
        SYSTEM LOSSES GW =           0.0000          SYSTEM LOSSES GW =           0.0000
        SYSTEM LOSSES SW =           0.0000          SYSTEM LOSSES SW =           0.0000

                TOTAL IN =  6932922368.0000                  TOTAL IN =           0.0000

          OUT:                                     OUT:
          ----                                     ----
               AG WELLS  =           0.0000                 AG WELLS  =           0.0000
      DIVERSION SEGMENTS =           0.0000        DIVERSION SEGMENTS =           0.0000
           GW IRRIGATION =  5977688576.0000             GW IRRIGATION =           0.0000
           SW IRRIGATION =   955250304.0000             SW IRRIGATION =           0.0000
        SYSTEM LOSSES GW =           0.0000          SYSTEM LOSSES GW =           0.0000
        SYSTEM LOSSES SW =           0.0000          SYSTEM LOSSES SW =           0.0000

               TOTAL OUT =  6932938752.0000                 TOTAL OUT =           0.0000

                IN - OUT =      -16384.0000                  IN - OUT =           0.0000

     PERCENT DISCREPANCY =          -0.00         PERCENT DISCREPANCY =           0.00



1
  VOLUMETRIC BUDGET FOR ENTIRE MODEL AT END OF TIME STEP   30, STRESS PERIOD  48
  ------------------------------------------------------------------------------

     CUMULATIVE VOLUMES      L**3       RATES FOR THIS TIME STEP      L**3/T
     ------------------                 ------------------------

           IN:                                      IN:
           ---                                      ---
             STORAGE     =  5993072640.0000               STORAGE     =           3.1648
       CONSTANT HEAD     =           0.0000         CONSTANT HEAD     =           0.0000
     HEAD DEP BOUNDS     =    35792908.0000       HEAD DEP BOUNDS     =           0.2911
      STREAM LEAKAGE     =  1500000896.0000        STREAM LEAKAGE     =          11.8923
        UZF RECHARGE     =  4991375360.0000          UZF RECHARGE     =           0.1030
               GW ET     =           0.0000                 GW ET     =           0.0000
     SURFACE LEAKAGE     =           0.0000       SURFACE LEAKAGE     =           0.0000
           AG WELLS      =           0.0000             AG WELLS      =           0.0000

                TOTAL IN = 12520241152.0000                  TOTAL IN =          15.4513

          OUT:                                     OUT:
          ----                                     ----
             STORAGE     =  5317565952.0000               STORAGE     =           5.8287
       CONSTANT HEAD     =           0.0000         CONSTANT HEAD     =           0.0000
     HEAD DEP BOUNDS     =    35531704.0000       HEAD DEP BOUNDS     =           0.2867
      STREAM LEAKAGE     =  1189312512.0000        STREAM LEAKAGE     =           9.3359
        UZF RECHARGE     =           0.0000          UZF RECHARGE     =           0.0000
               GW ET     =           0.0000                 GW ET     =           0.0000
     SURFACE LEAKAGE     =           0.0000       SURFACE LEAKAGE     =           0.0000
           AG WELLS      =  5977688576.0000             AG WELLS      =           0.0000

               TOTAL OUT = 12520098816.0000                 TOTAL OUT =          15.4513

                IN - OUT =      142336.0000                  IN - OUT =       1.1444E-05

     PERCENT DISCREPANCY =           0.00         PERCENT DISCREPANCY =           0.00






         TIME SUMMARY AT END OF TIME STEP   30 IN STRESS PERIOD   48
                    SECONDS     MINUTES      HOURS       DAYS        YEARS
                    -----------------------------------------------------------
   TIME STEP LENGTH  87667.      1461.1      24.352      1.0147     2.77799E-03
 STRESS PERIOD TIME 2.63000E+06  43833.      730.56      30.440     8.33397E-02
         TOTAL TIME 1.23695E+08 2.06158E+06  34360.      1431.7      3.9197    
1
1
                            STRESS PERIOD NO.   49, LENGTH =   2630000.    
                            -----------------------------------------------

                              NUMBER OF TIME STEPS =    30

                               MULTIPLIER FOR DELT =     1.000

                            INITIAL TIME STEP SIZE =   87666.66    

 REUSING NON-PARAMETER GHB CELLS FROM LAST STRESS PERIOD

      2 GHB CELLS

 REUSING STREAM SEGMENT DATA FROM LAST STRESS PERIOD



            AREAL INFILTRATION RATE
 READING ON UNIT   19 WITH FORMAT: (FREE)              

            1           2           3           4           5           6           7           8           9          10
 ........................................................................................................................
   1   1.0000E-10  2.0000E-10   0.000       0.000       0.000       0.000       0.000       0.000       0.000       0.000    
   2   2.0000E-10  1.0000E-10  2.0000E-10   0.000       0.000      8.0000E-10  8.0000E-10  5.0000E-10   0.000       0.000    
   3    0.000      5.0000E-10  1.0000E-10  1.0000E-10  8.0000E-10  8.0000E-10  5.0000E-10  5.0000E-10   0.000       0.000    
   4   8.0000E-10  5.0000E-10  1.0000E-10  1.0000E-10  1.0000E-10  1.0000E-10  1.0000E-10  1.0000E-10  2.0000E-10   0.000    
   5   8.0000E-10  5.0000E-10  1.0000E-10  1.0000E-10  1.0000E-10  1.0000E-10  1.0000E-10  1.0000E-10  1.0000E-10  1.0000E-10
   6   8.0000E-10  5.0000E-10  5.0000E-10  2.0000E-10  2.0000E-10  1.0000E-10  1.0000E-10  1.0000E-10  1.0000E-10  5.0000E-10
   7   8.0000E-10  5.0000E-10  5.0000E-10  2.0000E-10  2.0000E-10  1.0000E-10  1.0000E-10  2.0000E-10  2.0000E-10   0.000    
   8    0.000      5.0000E-10  5.0000E-10  2.0000E-10  2.0000E-10  1.0000E-10  1.0000E-10  2.0000E-10  5.0000E-10   0.000    
   9    0.000      5.0000E-10  5.0000E-10  2.0000E-10  2.0000E-10  1.0000E-10  1.0000E-10  2.0000E-10  5.0000E-10   0.000    
  10    0.000      5.0000E-10  5.0000E-10  2.0000E-10  2.0000E-10  1.0000E-10  1.0000E-10  2.0000E-10  5.0000E-10  8.0000E-10
  11    0.000      1.0000E-10  1.0000E-10  1.0000E-10  1.0000E-10  1.0000E-10  1.0000E-10  2.0000E-10  5.0000E-10   0.000    
  12   1.0000E-10  1.0000E-10  1.0000E-10  1.0000E-10  1.0000E-10  1.0000E-10  1.0000E-10  1.0000E-10  2.0000E-10   0.000    
  13   1.0000E-10  1.0000E-10  2.0000E-10  2.0000E-10  2.0000E-10  2.0000E-10  2.0000E-10  1.0000E-10  1.0000E-10   0.000    
  14    0.000      2.0000E-10  5.0000E-10  5.0000E-10  5.0000E-10  5.0000E-10  5.0000E-10  2.0000E-10  1.0000E-10   0.000    
  15    0.000       0.000      8.0000E-10  8.0000E-10  8.0000E-10  8.0000E-10   0.000       0.000       0.000       0.000    

                  ET RATE =  5.000000E-10

 USING ET EXTINCTION DEPTH FROM PREVIOUS STRESS PERIOD. CURRENT PERIOD IS:      49

 USING EXTINCTION WATER CONTENT FROM PREVIOUS STRESS PERIOD. CURRENT PERIOD IS:      49

 USING AIR ENTRY PRESSURE FROM PREVIOUS STRESS PERIOD. CURRENT PERIOD IS:      49

 USING ROOT PRESSURE HEAD FROM PREVIOUS STRESS PERIOD. CURRENT PERIOD IS:      49

 USING ROOT ACTIVITY FROM PREVIOUS STRESS PERIOD. CURRENT PERIOD IS:      49

 PROCESSING AG STRESS PERIOD DATA

 READING AG STRESS PERIOD DATA

 READING IRRIGATION SEGMENT

 READING IRRIGATION WELL

 READING SUPPLEMENTAL WELL

 END PROCESSING AG STRESS PERIOD DATA OPTIONS
 
 SOLVING FOR HEAD 
                                                   Max.-Head-Change                         Max.-Flux-Residual
  Residual-Control   Outer-Iter.   Inner-Iter.     Column Row Layer    Maximum-Head-Change  Column Row Layer    Maximum-Flux-Residual          L2-NORM 
          0                 1           2             4    6     1      -0.1650705474E-01       4    6    1        -0.8967762255E+00      0.1631684752E+01
          0                 2           2             4    6     1       0.1605807058E-02       4    6    1         0.8967675942E-01      0.1553671087E+00
          0                 3           2             4    6     1      -0.1093452588E-03       4    6    1        -0.6277384006E-02      0.1081551853E-01
          0                 4           1             4    6     1       0.4351094191E-05       4    6    1         0.2567453280E-03      0.4422055379E-03

    ------------------------------------------------
       NWT REQUIRED            4 OUTER ITERATIONS 
       AND A TOTAL OF          7 INNER ITERATIONS.
    ------------------------------------------------

 NO OUTPUT CONTROL FOR STRESS PERIOD   49   TIME STEP    1
 
 SOLVING FOR HEAD 
                                                   Max.-Head-Change                         Max.-Flux-Residual
  Residual-Control   Outer-Iter.   Inner-Iter.     Column Row Layer    Maximum-Head-Change  Column Row Layer    Maximum-Flux-Residual          L2-NORM 
          0                 1           2             4    6     1      -0.1578818259E-01       4    6    1        -0.8576742235E+00      0.1585599163E+01
          0                 2           2             4    6     1       0.1535878977E-02       4    6    1         0.8576662869E-01      0.1509560463E+00
          0                 3           2             4    6     1      -0.1045834899E-03       4    6    1        -0.6003674091E-02      0.1050798892E-01
          0                 4           1             4    6     1       0.4161616150E-05       4    6    1         0.2455505778E-03      0.4296342736E-03

    ------------------------------------------------
       NWT REQUIRED            4 OUTER ITERATIONS 
       AND A TOTAL OF          7 INNER ITERATIONS.
    ------------------------------------------------

 NO OUTPUT CONTROL FOR STRESS PERIOD   49   TIME STEP    2
 
 SOLVING FOR HEAD 
                                                   Max.-Head-Change                         Max.-Flux-Residual
  Residual-Control   Outer-Iter.   Inner-Iter.     Column Row Layer    Maximum-Head-Change  Column Row Layer    Maximum-Flux-Residual          L2-NORM 
          0                 1           2             4    6     1      -0.1510153181E-01       4    6    1        -0.8203350423E+00      0.1541667636E+01
          0                 2           2             4    6     1       0.1469085148E-02       4    6    1         0.8203277428E-01      0.1467519869E+00
          0                 3           1             4    6     1      -0.1000352477E-03       4    6    1        -0.5742303558E-02      0.1021490118E-01
          0                 4           1             4    6     1       0.3980730197E-05       4    6    1         0.2348662845E-03      0.4176478790E-03

    ------------------------------------------------
       NWT REQUIRED            4 OUTER ITERATIONS 
       AND A TOTAL OF          6 INNER ITERATIONS.
    ------------------------------------------------

 NO OUTPUT CONTROL FOR STRESS PERIOD   49   TIME STEP    3
 
 SOLVING FOR HEAD 
                                                   Max.-Head-Change                         Max.-Flux-Residual
  Residual-Control   Outer-Iter.   Inner-Iter.     Column Row Layer    Maximum-Head-Change  Column Row Layer    Maximum-Flux-Residual          L2-NORM 
          0                 1           2             4    6     1      -0.1444514702E-01       4    6    1        -0.7846518180E+00      0.1499544081E+01
          0                 2           2             4    6     1       0.1405235378E-02       4    6    1         0.7846451034E-01      0.1427191419E+00
          0                 3           1             4    6     1      -0.9568738705E-04       4    6    1        -0.5492524428E-02      0.9933726334E-02

    ------------------------------------------------
       NWT REQUIRED            3 OUTER ITERATIONS 
       AND A TOTAL OF          5 INNER ITERATIONS.
    ------------------------------------------------

 NO OUTPUT CONTROL FOR STRESS PERIOD   49   TIME STEP    4
 
 SOLVING FOR HEAD 
                                                   Max.-Head-Change                         Max.-Flux-Residual
  Residual-Control   Outer-Iter.   Inner-Iter.     Column Row Layer    Maximum-Head-Change  Column Row Layer    Maximum-Flux-Residual          L2-NORM 
          0                 1           2             4    6     1      -0.1381740735E-01       4    6    1        -0.7505348975E+00      0.1459402684E+01
          0                 2           2             4    6     1       0.1344172003E-02       4    6    1         0.7505287203E-01      0.1388772659E+00
          0                 3           1             4    6     1      -0.9152926760E-04       4    6    1        -0.5253709141E-02      0.9665870771E-02

    ------------------------------------------------
       NWT REQUIRED            3 OUTER ITERATIONS 
       AND A TOTAL OF          5 INNER ITERATIONS.
    ------------------------------------------------

 NO OUTPUT CONTROL FOR STRESS PERIOD   49   TIME STEP    5
 
 SOLVING FOR HEAD 
                                                   Max.-Head-Change                         Max.-Flux-Residual
  Residual-Control   Outer-Iter.   Inner-Iter.     Column Row Layer    Maximum-Head-Change  Column Row Layer    Maximum-Flux-Residual          L2-NORM 
          0                 1           2             4    6     1      -0.1321716780E-01       4    6    1        -0.7179213473E+00      0.1421265656E+01
          0                 2           2             4    6     1       0.1285783650E-02       4    6    1         0.7179156635E-01      0.1352300778E+00
          0                 3           1             4    6     1      -0.8755330479E-04       4    6    1        -0.5025417173E-02      0.9411627449E-02

    ------------------------------------------------
       NWT REQUIRED            3 OUTER ITERATIONS 
       AND A TOTAL OF          5 INNER ITERATIONS.
    ------------------------------------------------

 NO OUTPUT CONTROL FOR STRESS PERIOD   49   TIME STEP    6
 
 SOLVING FOR HEAD 
                                                   Max.-Head-Change                         Max.-Flux-Residual
  Residual-Control   Outer-Iter.   Inner-Iter.     Column Row Layer    Maximum-Head-Change  Column Row Layer    Maximum-Flux-Residual          L2-NORM 
          0                 1           2             4    6     1      -0.1264301425E-01       4    6    1        -0.6867336413E+00      0.1384875628E+01
          0                 2           2             4    6     1       0.1229932769E-02       4    6    1         0.6867284111E-01      0.1317510432E+00
          0                 3           1             4    6     1      -0.8375013240E-04       4    6    1        -0.4807105885E-02      0.9169124958E-02

    ------------------------------------------------
       NWT REQUIRED            3 OUTER ITERATIONS 
       AND A TOTAL OF          5 INNER ITERATIONS.
    ------------------------------------------------

 NO OUTPUT CONTROL FOR STRESS PERIOD   49   TIME STEP    7
 
 SOLVING FOR HEAD 
                                                   Max.-Head-Change                         Max.-Flux-Residual
  Residual-Control   Outer-Iter.   Inner-Iter.     Column Row Layer    Maximum-Head-Change  Column Row Layer    Maximum-Flux-Residual          L2-NORM 
          0                 1           2             4    6     1      -0.1209361257E-01       4    6    1        -0.6568984597E+00      0.1350151314E+01
          0                 2           2             4    6     1       0.1176489590E-02       4    6    1         0.6568936464E-01      0.1284318355E+00
          0                 3           1             4    6     1      -0.8011091330E-04       4    6    1        -0.4598262054E-02      0.8937786594E-02

    ------------------------------------------------
       NWT REQUIRED            3 OUTER ITERATIONS 
       AND A TOTAL OF          5 INNER ITERATIONS.
    ------------------------------------------------

 NO OUTPUT CONTROL FOR STRESS PERIOD   49   TIME STEP    8
 
 SOLVING FOR HEAD 
                                                   Max.-Head-Change                         Max.-Flux-Residual
  Residual-Control   Outer-Iter.   Inner-Iter.     Column Row Layer    Maximum-Head-Change  Column Row Layer    Maximum-Flux-Residual          L2-NORM 
          0                 1           2             4    6     1      -0.1156784069E-01       4    6    1        -0.6283539812E+00      0.1317004729E+01
          0                 2           2             4    6     1       0.1125344963E-02       4    6    1         0.6283495511E-01      0.1252644312E+00
          0                 3           1             4    6     1      -0.7662821534E-04       4    6    1        -0.4398452929E-02      0.8717002800E-02

    ------------------------------------------------
       NWT REQUIRED            3 OUTER ITERATIONS 
       AND A TOTAL OF          5 INNER ITERATIONS.
    ------------------------------------------------

 NO OUTPUT CONTROL FOR STRESS PERIOD   49   TIME STEP    9
 
 SOLVING FOR HEAD 
                                                   Max.-Head-Change                         Max.-Flux-Residual
  Residual-Control   Outer-Iter.   Inner-Iter.     Column Row Layer    Maximum-Head-Change  Column Row Layer    Maximum-Flux-Residual          L2-NORM 
          0                 1           2             4    6     1      -0.1106450561E-01       4    6    1        -0.6010346760E+00      0.1285364809E+01
          0                 2           2             4    6     1       0.1076382852E-02       4    6    1         0.6010305984E-01      0.1222417324E+00
          0                 3           1             4    6     1      -0.7329413624E-04       4    6    1        -0.4207219863E-02      0.8506329326E-02

    ------------------------------------------------
       NWT REQUIRED            3 OUTER ITERATIONS 
       AND A TOTAL OF          5 INNER ITERATIONS.
    ------------------------------------------------

 NO OUTPUT CONTROL FOR STRESS PERIOD   49   TIME STEP   10
 
 SOLVING FOR HEAD 
                                                   Max.-Head-Change                         Max.-Flux-Residual
  Residual-Control   Outer-Iter.   Inner-Iter.     Column Row Layer    Maximum-Head-Change  Column Row Layer    Maximum-Flux-Residual          L2-NORM 
          0                 1           2             4    6     1      -0.1058261248E-01       4    6    1        -0.5748860394E+00      0.1255152928E+01
          0                 2           2             4    6     1       0.1029506480E-02       4    6    1         0.5748822861E-01      0.1193563845E+00
          0                 3           1             4    6     1      -0.7010208631E-04       4    6    1        -0.4024181268E-02      0.8305239605E-02

    ------------------------------------------------
       NWT REQUIRED            3 OUTER ITERATIONS 
       AND A TOTAL OF          5 INNER ITERATIONS.
    ------------------------------------------------

 NO OUTPUT CONTROL FOR STRESS PERIOD   49   TIME STEP   11
 
 SOLVING FOR HEAD 
                                                   Max.-Head-Change                         Max.-Flux-Residual
  Residual-Control   Outer-Iter.   Inner-Iter.     Column Row Layer    Maximum-Head-Change  Column Row Layer    Maximum-Flux-Residual          L2-NORM 
          0                 1           2             4    6     1      -0.1012109287E-01       4    6    1        -0.5498491385E+00      0.1226310770E+01
          0                 2           2             4    6     1       0.9846119234E-03       4    6    1         0.5498456837E-01      0.1166025749E+00
          0                 3           1             4    6     1      -0.6704498843E-04       4    6    1        -0.3848924703E-02      0.8113310633E-02

    ------------------------------------------------
       NWT REQUIRED            3 OUTER ITERATIONS 
       AND A TOTAL OF          5 INNER ITERATIONS.
    ------------------------------------------------

 NO OUTPUT CONTROL FOR STRESS PERIOD   49   TIME STEP   12
 
 SOLVING FOR HEAD 
                                                   Max.-Head-Change                         Max.-Flux-Residual
  Residual-Control   Outer-Iter.   Inner-Iter.     Column Row Layer    Maximum-Head-Change  Column Row Layer    Maximum-Flux-Residual          L2-NORM 
          0                 1           2             4    6     1      -0.9678930166E-02       4    6    1        -0.5258685767E+00      0.1198758186E+01
          0                 2           2             4    6     1       0.9416002920E-03       4    6    1         0.5258653966E-01      0.1139729187E+00
          0                 3           1             4    6     1      -0.6411610912E-04       4    6    1        -0.3681062359E-02      0.7930049410E-02

    ------------------------------------------------
       NWT REQUIRED            3 OUTER ITERATIONS 
       AND A TOTAL OF          5 INNER ITERATIONS.
    ------------------------------------------------

 NO OUTPUT CONTROL FOR STRESS PERIOD   49   TIME STEP   13
 
 SOLVING FOR HEAD 
                                                   Max.-Head-Change                         Max.-Flux-Residual
  Residual-Control   Outer-Iter.   Inner-Iter.     Column Row Layer    Maximum-Head-Change  Column Row Layer    Maximum-Flux-Residual          L2-NORM 
          0                 1           2             4    6     1      -0.9255169410E-02       4    6    1        -0.5028916430E+00      0.1172444345E+01
          0                 2           2             4    6     1       0.9003786973E-03       4    6    1         0.5028887159E-01      0.1114622632E+00
          0                 3           1             4    6     1      -0.6130912223E-04       4    6    1        -0.3520225278E-02      0.7755110529E-02

    ------------------------------------------------
       NWT REQUIRED            3 OUTER ITERATIONS 
       AND A TOTAL OF          5 INNER ITERATIONS.
    ------------------------------------------------

 NO OUTPUT CONTROL FOR STRESS PERIOD   49   TIME STEP   14
 
 SOLVING FOR HEAD 
                                                   Max.-Head-Change                         Max.-Flux-Residual
  Residual-Control   Outer-Iter.   Inner-Iter.     Column Row Layer    Maximum-Head-Change  Column Row Layer    Maximum-Flux-Residual          L2-NORM 
          0                 1           2             4    6     1      -0.8849041969E-02       4    6    1        -0.4808761756E+00      0.1147301552E+01
          0                 2           2             4    6     1       0.8608723757E-03       4    6    1         0.4808734816E-01      0.1090638791E+00
          0                 3           1             4    6     1      -0.5861893750E-04       4    6    1        -0.3366118356E-02      0.7587980549E-02

    ------------------------------------------------
       NWT REQUIRED            3 OUTER ITERATIONS 
       AND A TOTAL OF          5 INNER ITERATIONS.
    ------------------------------------------------

 NO OUTPUT CONTROL FOR STRESS PERIOD   49   TIME STEP   15
 
 SOLVING FOR HEAD 
                                                   Max.-Head-Change                         Max.-Flux-Residual
  Residual-Control   Outer-Iter.   Inner-Iter.     Column Row Layer    Maximum-Head-Change  Column Row Layer    Maximum-Flux-Residual          L2-NORM 
          0                 1           2             4    6     1      -0.8459683749E-02       4    6    1        -0.4597749705E+00      0.1123275038E+01
          0                 2           2             4    6     1       0.8252083379E-03       4    6    1         0.4616070788E-01      0.1068318775E+00
          0                 3           1             4    6     1      -0.5619038170E-04       4    6    1        -0.3231252547E-02      0.7432418236E-02

    ------------------------------------------------
       NWT REQUIRED            3 OUTER ITERATIONS 
       AND A TOTAL OF          5 INNER ITERATIONS.
    ------------------------------------------------

 NO OUTPUT CONTROL FOR STRESS PERIOD   49   TIME STEP   16
 
 SOLVING FOR HEAD 
                                                   Max.-Head-Change                         Max.-Flux-Residual
  Residual-Control   Outer-Iter.   Inner-Iter.     Column Row Layer    Maximum-Head-Change  Column Row Layer    Maximum-Flux-Residual          L2-NORM 
          0                 1           2             4    6     1      -0.8074182324E-02       4    6    1        -0.4394251806E+00      0.1100282638E+01
          0                 2           2             4    6     1       0.7854985527E-03       4    6    1         0.4394236420E-01      0.1045812013E+00
          0                 3           1             4    6     1      -0.5348633868E-04       4    6    1        -0.3075968274E-02      0.7275631580E-02

    ------------------------------------------------
       NWT REQUIRED            3 OUTER ITERATIONS 
       AND A TOTAL OF          5 INNER ITERATIONS.
    ------------------------------------------------

 NO OUTPUT CONTROL FOR STRESS PERIOD   49   TIME STEP   17
 
 SOLVING FOR HEAD 
                                                   Max.-Head-Change                         Max.-Flux-Residual
  Residual-Control   Outer-Iter.   Inner-Iter.     Column Row Layer    Maximum-Head-Change  Column Row Layer    Maximum-Flux-Residual          L2-NORM 
          0                 1           2             4    6     1      -0.7707145725E-02       4    6    1        -0.4195112313E+00      0.1078182353E+01
          0                 2           2             4    6     1       0.7497947123E-03       4    6    1         0.4195098227E-01      0.1024738406E+00
          0                 3           1             4    6     1      -0.5105508434E-04       4    6    1        -0.2936571349E-02      0.7128801477E-02

    ------------------------------------------------
       NWT REQUIRED            3 OUTER ITERATIONS 
       AND A TOTAL OF          5 INNER ITERATIONS.
    ------------------------------------------------

 NO OUTPUT CONTROL FOR STRESS PERIOD   49   TIME STEP   18
 
 SOLVING FOR HEAD 
                                                   Max.-Head-Change                         Max.-Flux-Residual
  Residual-Control   Outer-Iter.   Inner-Iter.     Column Row Layer    Maximum-Head-Change  Column Row Layer    Maximum-Flux-Residual          L2-NORM 
          0                 1           2             4    6     1      -0.7355620341E-02       4    6    1        -0.4004441941E+00      0.1057072631E+01
          0                 2           2             4    6     1       0.7155997248E-03       4    6    1         0.4004429050E-01      0.1004620783E+00
          0                 3           1             4    6     1      -0.4872657553E-04       4    6    1        -0.2803102752E-02      0.6988629536E-02

    ------------------------------------------------
       NWT REQUIRED            3 OUTER ITERATIONS 
       AND A TOTAL OF          5 INNER ITERATIONS.
    ------------------------------------------------

 NO OUTPUT CONTROL FOR STRESS PERIOD   49   TIME STEP   19
 
 SOLVING FOR HEAD 
                                                   Max.-Head-Change                         Max.-Flux-Residual
  Residual-Control   Outer-Iter.   Inner-Iter.     Column Row Layer    Maximum-Head-Change  Column Row Layer    Maximum-Flux-Residual          L2-NORM 
          0                 1           2             3    7     1       0.7163267516E-02       4    6    1        -0.3821740401E+00      0.1036893533E+01
          0                 2           2             3    7     1      -0.6967044368E-03       4    6    1         0.3821728607E-01      0.9853973043E-01
          0                 3           1             3    7     1       0.4744585895E-04       4    6    1        -0.2675212297E-02      0.6854708470E-02

    ------------------------------------------------
       NWT REQUIRED            3 OUTER ITERATIONS 
       AND A TOTAL OF          5 INNER ITERATIONS.
    ------------------------------------------------

 NO OUTPUT CONTROL FOR STRESS PERIOD   49   TIME STEP   20
 
 SOLVING FOR HEAD 
                                                   Max.-Head-Change                         Max.-Flux-Residual
  Residual-Control   Outer-Iter.   Inner-Iter.     Column Row Layer    Maximum-Head-Change  Column Row Layer    Maximum-Flux-Residual          L2-NORM 
          0                 1           2             3    7     1       0.7031960344E-02       4    6    1        -0.3646752556E+00      0.1017614436E+01
          0                 2           2             3    7     1      -0.6839328957E-03       4    6    1         0.3646741773E-01      0.9670384253E-01
          0                 3           1             3    7     1       0.4657612787E-04       4    6    1        -0.2552721358E-02      0.6726809807E-02

    ------------------------------------------------
       NWT REQUIRED            3 OUTER ITERATIONS 
       AND A TOTAL OF          5 INNER ITERATIONS.
    ------------------------------------------------

 NO OUTPUT CONTROL FOR STRESS PERIOD   49   TIME STEP   21
 
 SOLVING FOR HEAD 
                                                   Max.-Head-Change                         Max.-Flux-Residual
  Residual-Control   Outer-Iter.   Inner-Iter.     Column Row Layer    Maximum-Head-Change  Column Row Layer    Maximum-Flux-Residual          L2-NORM 
          0                 1           2             3    7     1       0.6904570962E-02       4    6    1        -0.3479023093E+00      0.9991808080E+00
          0                 2           2             3    7     1      -0.6715365671E-03       4    6    1         0.3479013240E-01      0.9477729148E-01
          0                 3           1             3    7     1       0.4572993099E-04       4    6    1        -0.2435311240E-02      0.6585605867E-02

    ------------------------------------------------
       NWT REQUIRED            3 OUTER ITERATIONS 
       AND A TOTAL OF          5 INNER ITERATIONS.
    ------------------------------------------------

 NO OUTPUT CONTROL FOR STRESS PERIOD   49   TIME STEP   22
 
 SOLVING FOR HEAD 
                                                   Max.-Head-Change                         Max.-Flux-Residual
  Residual-Control   Outer-Iter.   Inner-Iter.     Column Row Layer    Maximum-Head-Change  Column Row Layer    Maximum-Flux-Residual          L2-NORM 
          0                 1           2             3    7     1       0.6780739025E-02       4    6    1        -0.3318186472E+00      0.9815865204E+00
          0                 2           2             3    7     1      -0.6594670013E-03       4    6    1         0.3318177476E-01      0.9293220639E-01
          0                 3           1             3    7     1       0.4491107460E-04       4    6    1        -0.2322726079E-02      0.6461326262E-02

    ------------------------------------------------
       NWT REQUIRED            3 OUTER ITERATIONS 
       AND A TOTAL OF          5 INNER ITERATIONS.
    ------------------------------------------------

 NO OUTPUT CONTROL FOR STRESS PERIOD   49   TIME STEP   23
 
 SOLVING FOR HEAD 
                                                   Max.-Head-Change                         Max.-Flux-Residual
  Residual-Control   Outer-Iter.   Inner-Iter.     Column Row Layer    Maximum-Head-Change  Column Row Layer    Maximum-Flux-Residual          L2-NORM 
          0                 1           2             3    7     1       0.6660403521E-02       4    6    1        -0.3163930221E+00      0.9647296582E+00
          0                 2           2             3    7     1      -0.6477627996E-03       4    6    1         0.3163922009E-01      0.9132450761E-01
          0                 3           1             3    7     1       0.4411402056E-04       4    6    1        -0.2214747125E-02      0.6349283795E-02

    ------------------------------------------------
       NWT REQUIRED            3 OUTER ITERATIONS 
       AND A TOTAL OF          5 INNER ITERATIONS.
    ------------------------------------------------

 NO OUTPUT CONTROL FOR STRESS PERIOD   49   TIME STEP   24
 
 SOLVING FOR HEAD 
                                                   Max.-Head-Change                         Max.-Flux-Residual
  Residual-Control   Outer-Iter.   Inner-Iter.     Column Row Layer    Maximum-Head-Change  Column Row Layer    Maximum-Flux-Residual          L2-NORM 
          0                 1           2             3    7     1       0.6543418531E-02       6    8    1         0.3030110946E+00      0.9486070011E+00
          0                 2           2             3    7     1      -0.6363844410E-03       6    8    1        -0.3030117838E-01      0.8978759937E-01
          0                 3           1             3    7     1       0.4333915759E-04       6    8    1         0.2124559063E-02      0.6242170355E-02

    ------------------------------------------------
       NWT REQUIRED            3 OUTER ITERATIONS 
       AND A TOTAL OF          5 INNER ITERATIONS.
    ------------------------------------------------

 NO OUTPUT CONTROL FOR STRESS PERIOD   49   TIME STEP   25
 
 SOLVING FOR HEAD 
                                                   Max.-Head-Change                         Max.-Flux-Residual
  Residual-Control   Outer-Iter.   Inner-Iter.     Column Row Layer    Maximum-Head-Change  Column Row Layer    Maximum-Flux-Residual          L2-NORM 
          0                 1           2             3    7     1       0.6429915790E-02       6    8    1         0.2986246517E+00      0.9331844414E+00
          0                 2           2             3    7     1      -0.6253447438E-03       6    8    1        -0.2986253203E-01      0.8831772883E-01
          0                 3           1             3    7     1       0.4258735749E-04       6    8    1         0.2093793566E-02      0.6139727479E-02

    ------------------------------------------------
       NWT REQUIRED            3 OUTER ITERATIONS 
       AND A TOTAL OF          5 INNER ITERATIONS.
    ------------------------------------------------

 NO OUTPUT CONTROL FOR STRESS PERIOD   49   TIME STEP   26
 
 SOLVING FOR HEAD 
                                                   Max.-Head-Change                         Max.-Flux-Residual
  Residual-Control   Outer-Iter.   Inner-Iter.     Column Row Layer    Maximum-Head-Change  Column Row Layer    Maximum-Flux-Residual          L2-NORM 
          0                 1           2             3    7     1       0.6319528700E-02       4    6    1        -0.2737431063E+00      0.8491699958E+00
          0                 2           2             3    7     1      -0.6146091396E-03       4    6    1         0.2737424818E-01      0.7941133635E-01
          0                 3           1             3    7     1       0.4185624074E-04       4    6    1        -0.1916198793E-02      0.5508176544E-02

    ------------------------------------------------
       NWT REQUIRED            3 OUTER ITERATIONS 
       AND A TOTAL OF          5 INNER ITERATIONS.
    ------------------------------------------------

 NO OUTPUT CONTROL FOR STRESS PERIOD   49   TIME STEP   27
 
 SOLVING FOR HEAD 
                                                   Max.-Head-Change                         Max.-Flux-Residual
  Residual-Control   Outer-Iter.   Inner-Iter.     Column Row Layer    Maximum-Head-Change  Column Row Layer    Maximum-Flux-Residual          L2-NORM 
          0                 1           2             3    7     1       0.6212153981E-02       6    8    1         0.2965810323E+00      0.9072175266E+00
          0                 2           2             3    7     1      -0.6041653695E-03       6    8    1        -0.2965817207E-01      0.8596965636E-01
          0                 3           1             3    7     1       0.4114501827E-04       6    8    1         0.2079339159E-02      0.5977004314E-02

    ------------------------------------------------
       NWT REQUIRED            3 OUTER ITERATIONS 
       AND A TOTAL OF          5 INNER ITERATIONS.
    ------------------------------------------------

 NO OUTPUT CONTROL FOR STRESS PERIOD   49   TIME STEP   28
 
 SOLVING FOR HEAD 
                                                   Max.-Head-Change                         Max.-Flux-Residual
  Residual-Control   Outer-Iter.   Inner-Iter.     Column Row Layer    Maximum-Head-Change  Column Row Layer    Maximum-Flux-Residual          L2-NORM 
          0                 1           2             3    7     1       0.6107690703E-02       6    8    1         0.2920902192E+00      0.8935782320E+00
          0                 2           2             3    7     1      -0.5940047516E-03       6    8    1        -0.2920908843E-01      0.8466356957E-01
          0                 3           1             3    7     1       0.4045308845E-04       6    8    1         0.2047851987E-02      0.5885955343E-02

    ------------------------------------------------
       NWT REQUIRED            3 OUTER ITERATIONS 
       AND A TOTAL OF          5 INNER ITERATIONS.
    ------------------------------------------------

 NO OUTPUT CONTROL FOR STRESS PERIOD   49   TIME STEP   29
 
 SOLVING FOR HEAD 
                                                   Max.-Head-Change                         Max.-Flux-Residual
  Residual-Control   Outer-Iter.   Inner-Iter.     Column Row Layer    Maximum-Head-Change  Column Row Layer    Maximum-Flux-Residual          L2-NORM 
          0                 1           2             3    8     1       0.6056030488E-02       6    8    1         0.2877097358E+00      0.8805188987E+00
          0                 2           2             3    8     1      -0.5854644982E-03       6    8    1        -0.2877103788E-01      0.8341354194E-01
          0                 3           1             3    8     1       0.3998492778E-04       6    8    1         0.2017138873E-02      0.5798805060E-02

    ------------------------------------------------
       NWT REQUIRED            3 OUTER ITERATIONS 
       AND A TOTAL OF          5 INNER ITERATIONS.
    ------------------------------------------------

 NO OUTPUT CONTROL FOR STRESS PERIOD   49   TIME STEP   30



 STREAM LISTING     PERIOD     49   STEP       30

 LAYER ROW COL. STREAM  RCH.  FLOW INTO     FLOW TO   FLOW OUT OF   OVRLND.     DIRECT     STREAM       STREAM     STREAM     STREAM   STREAMBED  STREAMBED
                SEG.NO.  NO.  STRM. RCH.    AQUIFER    STRM. RCH.    RUNOFF     PRECIP       ET          HEAD       DEPTH      WIDTH   CONDCTNC.   GRADIENT

   1    1    1     1     1    7.1250E+00  1.2038E-01   7.0046E+00  0.000E+00  0.000E+00  0.000E+00  1.09385E+03  8.024E-01  7.035E+00  3.166E-02  1.267E+00
   1    2    2     1     2    7.0046E+00  1.8492E-01   6.8197E+00  0.000E+00  0.000E+00  0.000E+00  1.08886E+03  7.976E-01  6.956E+00  4.869E-02  1.266E+00
   1    3    3     1     3    6.8197E+00  1.5635E-01   6.6634E+00  0.000E+00  0.000E+00  0.000E+00  1.08321E+03  7.929E-01  6.870E+00  4.122E-02  1.264E+00
   1    3    4     1     4    6.6634E+00  1.4286E-01   6.5205E+00  0.000E+00  0.000E+00  0.000E+00  1.07820E+03  7.886E-01  6.794E+00  3.771E-02  1.263E+00
   1    4    5     2     1    4.5205E+00  2.6715E-01   4.2533E+00  0.000E+00  0.000E+00  0.000E+00  1.07236E+03  4.251E-01  1.200E+01  7.800E-02  1.142E+00
   1    5    6     2     2    4.2533E+00  2.0467E-01   4.0487E+00  0.000E+00  0.000E+00  0.000E+00  1.06692E+03  4.112E-01  1.200E+01  6.000E-02  1.137E+00
   1    6    6     2     3    4.0487E+00  2.0394E-01   3.8447E+00  0.000E+00  0.000E+00  0.000E+00  1.06219E+03  3.989E-01  1.200E+01  6.000E-02  1.133E+00
   1    7    6     2     4    3.8447E+00  2.0319E-01   3.6416E+00  0.000E+00  0.000E+00  0.000E+00  1.05746E+03  3.864E-01  1.200E+01  6.000E-02  1.129E+00
   1    8    6     2     5    3.6416E+00  2.0242E-01   3.4391E+00  0.000E+00  0.000E+00  0.000E+00  1.05273E+03  3.737E-01  1.200E+01  6.000E-02  1.125E+00
   1    3    5     3     1    2.0000E+00  2.8252E-01   1.7175E+00  0.000E+00  0.000E+00  0.000E+00  1.07555E+03  1.909E+00  9.636E+00  7.227E-02  1.955E+00
   1    3    6     3     2    1.7175E+00  2.4905E-01   1.4684E+00  0.000E+00  0.000E+00  0.000E+00  1.07264E+03  1.727E+00  8.909E+00  6.682E-02  1.864E+00
   1    3    7     3     3    1.4684E+00  1.9718E-01   1.2712E+00  0.000E+00  0.000E+00  0.000E+00  1.06987E+03  1.555E+00  8.218E+00  5.547E-02  1.777E+00
   1    4    8     3     4    1.2712E+00  2.2567E-01   1.0456E+00  0.000E+00  0.000E+00  0.000E+00  1.06682E+03  1.364E+00  7.455E+00  6.709E-02  1.682E+00
   1    5    8     3     5    1.0456E+00  1.5790E-01   8.8768E-01  0.000E+00  0.000E+00  0.000E+00  1.06362E+03  1.164E+00  6.655E+00  4.991E-02  1.582E+00
   1    6    8     3     6    8.8768E-01  5.5980E-02   8.3170E-01  0.000E+00  0.000E+00  0.000E+00  1.06158E+03  1.036E+00  6.145E+00  1.844E-02  1.518E+00
   1    5   10     4     1    1.0000E+01  9.0919E-02   9.9091E+00  0.000E+00  0.000E+00  0.000E+00  1.07836E+03  6.368E-01  1.000E+01  2.500E-02  1.212E+00
   1    5    9     4     2    9.9091E+00  1.8158E-01   9.7275E+00  0.000E+00  0.000E+00  0.000E+00  1.07154E+03  6.315E-01  1.000E+01  5.000E-02  1.211E+00
   1    6    8     4     3    9.7275E+00  1.2689E-01   9.6006E+00  0.000E+00  0.000E+00  0.000E+00  1.06381E+03  6.256E-01  1.000E+01  3.500E-02  1.209E+00
   1    6    8     5     1    1.0432E+01  2.2686E-01   1.0205E+01  0.000E+00  0.000E+00  0.000E+00  1.05868E+03  6.790E-01  1.542E+01  6.166E-02  1.226E+00
   1    7    7     5     2    1.0205E+01  2.7894E-01   9.9265E+00  0.000E+00  0.000E+00  0.000E+00  1.05417E+03  6.732E-01  1.519E+01  7.594E-02  1.224E+00
   1    8    7     5     3    9.9265E+00  1.9221E-01   9.7343E+00  0.000E+00  0.000E+00  0.000E+00  1.04992E+03  6.676E-01  1.497E+01  5.241E-02  1.223E+00
   1    8    6     5     4    9.7343E+00  1.3577E-01   9.5985E+00  0.000E+00  0.000E+00  0.000E+00  1.04691E+03  6.637E-01  1.482E+01  3.706E-02  1.221E+00
   1    9    6     6     1    1.3038E+01  2.2931E-01   1.2808E+01  0.000E+00  0.000E+00  0.000E+00  1.04355E+03  8.218E-01  1.200E+01  6.000E-02  1.274E+00
   1   10    7     6     2    1.2808E+01  2.2878E-01   1.2580E+01  0.000E+00  0.000E+00  0.000E+00  1.03899E+03  8.131E-01  1.200E+01  6.000E-02  1.271E+00
   1   11    7     6     3    1.2580E+01  2.2826E-01   1.2351E+01  0.000E+00  0.000E+00  0.000E+00  1.03444E+03  8.043E-01  1.200E+01  6.000E-02  1.268E+00
   1   12    7     6     4    1.2351E+01  2.2772E-01   1.2124E+01  0.000E+00  0.000E+00  0.000E+00  1.02989E+03  7.954E-01  1.200E+01  6.000E-02  1.265E+00
   1   13    7     6     5    1.2124E+01  5.7367E-03   1.2118E+01  0.000E+00  0.000E+00  0.000E+00  1.02670E+03  7.908E-01  1.200E+01  2.400E-02  7.968E-02
   1   14    9     7     1    1.5000E+02  1.4144E+00   1.4859E+02  0.000E+00  0.000E+00  0.000E+00  1.03987E+03  2.288E+00  5.529E+01  5.593E-01  8.430E-01
   1   13    8     7     2    1.4859E+02  2.0487E+00   1.4654E+02  0.000E+00  0.000E+00  0.000E+00  1.03478E+03  2.278E+00  5.525E+01  6.147E-01  1.111E+00
   1   13    7     7     3    1.4654E+02  1.8014E+00   1.4474E+02  0.000E+00  0.000E+00  0.000E+00  1.02969E+03  2.268E+00  5.521E+01  5.583E-01  1.075E+00
   1   13    6     8     1    1.5685E+02  1.1622E+00   1.5569E+02  0.000E+00  0.000E+00  0.000E+00  1.02474E+03  2.860E+00  4.148E+01  4.227E-01  9.166E-01
   1   13    5     8     2    1.5569E+02  4.0172E-01   1.5529E+02  0.000E+00  0.000E+00  0.000E+00  1.01848E+03  2.855E+00  4.140E+01  4.219E-01  3.174E-01
   1   13    4     8     3    1.5529E+02 -1.6606E+00   1.5695E+02  0.000E+00  0.000E+00  0.000E+00  1.01223E+03  2.859E+00  4.146E+01  4.225E+00 -1.310E-01
   1   13    3     8     4    1.5695E+02 -3.2525E+00   1.6020E+02  0.000E+00  0.000E+00  0.000E+00  1.00600E+03  2.876E+00  4.170E+01  4.250E+00 -2.551E-01
   1   13    2     8     5    1.6020E+02 -2.4739E+00   1.6268E+02  0.000E+00  0.000E+00  0.000E+00  9.99771E+02  2.896E+00  4.199E+01  4.278E+00 -1.927E-01
   1   13    1     8     6    1.6268E+02 -1.9523E+00   1.6463E+02  0.000E+00  0.000E+00  0.000E+00  9.94785E+02  2.910E+00  4.220E+01  2.580E+00 -2.522E-01
   1    8    6     9     1    0.0000E+00  0.0000E+00   0.0000E+00  0.000E+00  0.000E+00  0.000E+00  1.07875E+03  0.000E+00  4.000E+00  0.000E+00  1.000E+00
   1    8    5     9     2    0.0000E+00  0.0000E+00   0.0000E+00  0.000E+00  0.000E+00  0.000E+00  1.07825E+03  0.000E+00  4.000E+00  0.000E+00  1.000E+00





UNSATURATED ZONE PACKAGE VOLUMETRIC BUDGET FOR  TIME STEP    30 STRESS PERIOD   49
  ------------------------------------------------------------------------------



     CUMULATIVE VOLUMES      L**3       RATES FOR THIS TIME STEP      L**3/T
     ------------------                 ------------------------

           IN:                                      IN:
           ---                                      ---
        INFILTRATION =  7039966615.2907          INFILTRATION =           0.8475

          OUT:                                     OUT:
          ----                                     ----
              UZF ET =  1710892883.6189                UZF ET =           0.7950
        UZF RECHARGE =  4991583718.9433          UZF RECHARGE =           0.0696

            IN - OUT =   337490012.7285              IN - OUT =      -1.7083E-02

          STORAGE:                                 STORAGE:
          --------                                 --------
      STORAGE CHANGE =   337636586.1565        STORAGE CHANGE =      -1.7083E-02

 PERCENT DISCREPANCY IS DIFFERENCE BETWEEN IN-OUT MINUS CHANGE IN STORAGE
 DIVIDED BY THE AVERAGE OF IN AND OUT TIMES 100

 PERCENT DISCREPANCY =          -0.00     PERCENT DISCREPANCY =           0.00






1
  VOLUMETRIC BUDGET FOR AGRICULTURAL FIELDS AT  END OF TIME STEP   30, STRESS PERIOD  49
  ------------------------------------------------------------------------------

     CUMULATIVE VOLUMES      L**3       RATES FOR THIS TIME STEP      L**3/T
     ------------------                 ------------------------

           IN:                                      IN:
           ---                                      ---
               AG WELLS  =  5977688576.0000                 AG WELLS  =           0.0000
      DIVERSION SEGMENTS =   955233536.0000        DIVERSION SEGMENTS =           0.0000
           GW IRRIGATION =           0.0000             GW IRRIGATION =           0.0000
           SW IRRIGATION =           0.0000             SW IRRIGATION =           0.0000
        SYSTEM LOSSES GW =           0.0000          SYSTEM LOSSES GW =           0.0000
        SYSTEM LOSSES SW =           0.0000          SYSTEM LOSSES SW =           0.0000

                TOTAL IN =  6932922368.0000                  TOTAL IN =           0.0000

          OUT:                                     OUT:
          ----                                     ----
               AG WELLS  =           0.0000                 AG WELLS  =           0.0000
      DIVERSION SEGMENTS =           0.0000        DIVERSION SEGMENTS =           0.0000
           GW IRRIGATION =  5977688576.0000             GW IRRIGATION =           0.0000
           SW IRRIGATION =   955250304.0000             SW IRRIGATION =           0.0000
        SYSTEM LOSSES GW =           0.0000          SYSTEM LOSSES GW =           0.0000
        SYSTEM LOSSES SW =           0.0000          SYSTEM LOSSES SW =           0.0000

               TOTAL OUT =  6932938752.0000                 TOTAL OUT =           0.0000

                IN - OUT =      -16384.0000                  IN - OUT =           0.0000

     PERCENT DISCREPANCY =          -0.00         PERCENT DISCREPANCY =           0.00



1
  VOLUMETRIC BUDGET FOR ENTIRE MODEL AT END OF TIME STEP   30, STRESS PERIOD  49
  ------------------------------------------------------------------------------

     CUMULATIVE VOLUMES      L**3       RATES FOR THIS TIME STEP      L**3/T
     ------------------                 ------------------------

           IN:                                      IN:
           ---                                      ---
             STORAGE     =  5998912000.0000               STORAGE     =           1.5401
       CONSTANT HEAD     =           0.0000         CONSTANT HEAD     =           0.0000
     HEAD DEP BOUNDS     =    36558508.0000       HEAD DEP BOUNDS     =           0.2911
      STREAM LEAKAGE     =  1531076352.0000        STREAM LEAKAGE     =          11.8355
        UZF RECHARGE     =  4991581696.0000          UZF RECHARGE     =       6.9583E-02
               GW ET     =           0.0000                 GW ET     =           0.0000
     SURFACE LEAKAGE     =           0.0000       SURFACE LEAKAGE     =           0.0000
           AG WELLS      =           0.0000             AG WELLS      =           0.0000

                TOTAL IN = 12558129152.0000                  TOTAL IN =          13.7363

          OUT:                                     OUT:
          ----                                     ----
             STORAGE     =  5330103296.0000               STORAGE     =           4.1111
       CONSTANT HEAD     =           0.0000         CONSTANT HEAD     =           0.0000
     HEAD DEP BOUNDS     =    36285572.0000       HEAD DEP BOUNDS     =           0.2866
      STREAM LEAKAGE     =  1213908864.0000        STREAM LEAKAGE     =           9.3392
        UZF RECHARGE     =           0.0000          UZF RECHARGE     =           0.0000
               GW ET     =           0.0000                 GW ET     =           0.0000
     SURFACE LEAKAGE     =           0.0000       SURFACE LEAKAGE     =           0.0000
           AG WELLS      =  5977688576.0000             AG WELLS      =           0.0000

               TOTAL OUT = 12557985792.0000                 TOTAL OUT =          13.7369

                IN - OUT =      143360.0000                  IN - OUT =      -5.5218E-04

     PERCENT DISCREPANCY =           0.00         PERCENT DISCREPANCY =          -0.00






         TIME SUMMARY AT END OF TIME STEP   30 IN STRESS PERIOD   49
                    SECONDS     MINUTES      HOURS       DAYS        YEARS
                    -----------------------------------------------------------
   TIME STEP LENGTH  87667.      1461.1      24.352      1.0147     2.77799E-03
 STRESS PERIOD TIME 2.63000E+06  43833.      730.56      30.440     8.33397E-02
         TOTAL TIME 1.26325E+08 2.10542E+06  35090.      1462.1      4.0030    
1


 Run end date and time (yyyy/mm/dd hh:mm:ss): 2021/02/11 20:56:41
 Elapsed run time: 5.912 Seconds

